<?xml version="1.0" encoding="UTF-8" standalone="yes"?>
<nodes xmlns:xsi="http://www.w3.org/2001/XMLSchema-instance" xsi:noNamespaceSchemaLocation="http://sumo.dlr.de/xsd/nodes_file.xsd">
    <node id="553800278" x="127.32328" y="36.33627" z="0.0" type="priority" radius="1.5" keepClear="true" dong_cd="2504064"/>
    <node id="553800673" x="127.33027" y="36.33213" z="0.0" type="priority" radius="1.5" keepClear="true" dong_cd="2504051"/>
    <node id="553800690" x="127.32665" y="36.33442" z="0.0" type="priority" radius="1.5" keepClear="true" dong_cd="2504064"/>
    <node id="553800716" x="127.32417" y="36.33568" z="0.0" type="right_before_left" radius="1.5" keepClear="true" dong_cd="2504051"/>
    <node id="553800725" x="127.32221" y="36.33627" z="0.0" type="priority" radius="1.5" keepClear="true" dong_cd="2504051"/>
    <node id="553800726" x="127.32397" y="36.33627" z="0.0" type="priority" radius="1.5" keepClear="true" dong_cd="2504064"/>
    <node id="553800728" x="127.34959" y="36.33627" z="0.0" type="priority" radius="1.5" keepClear="true" dong_cd="2504065"/>
    <node id="553801005" x="127.3237" y="36.327587" z="0.0" type="right_before_left" radius="1.5" keepClear="true" dong_cd="2504051"/>
    <node id="553801008" x="127.33479" y="36.32732" z="0.0" type="right_before_left" radius="1.5" keepClear="true" dong_cd="2504051"/>
    <node id="553801009" x="127.33577" y="36.327145" z="0.0" type="priority" radius="1.5" keepClear="true" dong_cd="2504051"/>
    <node id="553801010" x="127.334785" y="36.327522" z="0.0" type="priority" radius="1.5" keepClear="true" dong_cd="2504051"/>
    <node id="553801128" x="127.33836" y="36.32741" z="0.0" type="right_before_left" radius="1.5" keepClear="true" dong_cd="2503070"/>
    <node id="553801129" x="127.33651" y="36.327175" z="0.0" type="priority" radius="1.5" keepClear="true" dong_cd="2503070"/>
    <node id="553801130" x="127.34042" y="36.327625" z="0.0" type="right_before_left" radius="1.5" keepClear="true" dong_cd="2503070"/>
    <node id="553801142" x="127.34041" y="36.32773" z="0.0" type="priority" radius="1.5" keepClear="true" dong_cd="2503070"/>
    <node id="553801666" x="127.338135" y="36.329147" z="0.0" type="priority" radius="1.5" keepClear="true" dong_cd="2503070"/>
    <node id="553802475" x="127.32922" y="36.32724" z="0.0" type="priority" radius="1.5" keepClear="true" dong_cd="2504051"/>
    <node id="553802607" x="127.33545" y="36.3272" z="0.0" type="right_before_left" radius="1.5" keepClear="true" dong_cd="2504051"/>
    <node id="553802640" x="127.323845" y="36.335926" z="0.0" type="right_before_left" radius="1.5" keepClear="true" dong_cd="2504051"/>
    <node id="553802641" x="127.32393" y="36.33615" z="0.0" type="right_before_left" radius="1.5" keepClear="true" dong_cd="2504064"/>
    <node id="553802860" x="127.33015" y="36.331" z="0.0" type="right_before_left" radius="1.5" keepClear="true" dong_cd="2504051"/>
    <node id="553802930" x="127.338165" y="36.33484" z="0.0" type="traffic_light" tl="553802930" radius="1.5" keepClear="true" dong_cd="2504065"/>
    <node id="553802934" x="127.33818" y="36.33627" z="0.0" type="priority" radius="1.5" keepClear="true" dong_cd="2504065"/>
    <node id="553803006" x="127.33406" y="36.33627" z="0.0" type="priority" radius="1.5" keepClear="true" dong_cd="2504065"/>
    <node id="553803007" x="127.3267" y="36.33367" z="0.0" type="right_before_left" radius="1.5" keepClear="true" dong_cd="2504064"/>
    <node id="553803035" x="127.33816" y="36.333508" z="0.0" type="traffic_light" tl="553803035" radius="1.5" keepClear="true" dong_cd="2504065"/>
    <node id="553803036" x="127.34094" y="36.333504" z="0.0" type="traffic_light" tl="553803036" radius="1.5" keepClear="true" dong_cd="2504065"/>
    <node id="553803037" x="127.34014" y="36.333504" z="0.0" type="priority" radius="1.5" keepClear="true" dong_cd="2504065"/>
    <node id="553803038" x="127.34054" y="36.333508" z="0.0" type="priority" radius="1.5" keepClear="true" dong_cd="2504065"/>
    <node id="553803039" x="127.340385" y="36.333508" z="0.0" type="priority" radius="1.5" keepClear="true" dong_cd="2504065"/>
    <node id="553803040" x="127.338684" y="36.333508" z="0.0" type="priority" radius="1.5" keepClear="true" dong_cd="2504065"/>
    <node id="553803041" x="127.338684" y="36.333122" z="0.0" type="priority" radius="1.5" keepClear="true" dong_cd="2504065"/>
    <node id="553803042" x="127.34038" y="36.333122" z="0.0" type="priority" radius="1.5" keepClear="true" dong_cd="2504065"/>
    <node id="553803043" x="127.33955" y="36.332745" z="0.0" type="priority" radius="1.5" keepClear="true" dong_cd="2504065"/>
    <node id="553803096" x="127.33422" y="36.33627" z="0.0" type="priority" radius="1.5" keepClear="true" dong_cd="2504065"/>
    <node id="553803097" x="127.3338" y="36.33627" z="0.0" type="priority" radius="1.5" keepClear="true" dong_cd="2504065"/>
    <node id="553803098" x="127.3388" y="36.33484" z="0.0" type="priority" radius="1.5" keepClear="true" dong_cd="2504065"/>
    <node id="553803099" x="127.3388" y="36.334724" z="0.0" type="priority" radius="1.5" keepClear="true" dong_cd="2504065"/>
    <node id="553803100" x="127.33589" y="36.333515" z="0.0" type="priority" radius="1.5" keepClear="true" dong_cd="2504065"/>
    <node id="553803101" x="127.34188" y="36.333427" z="0.0" type="right_before_left" radius="1.5" keepClear="true" dong_cd="2504065"/>
    <node id="553803102" x="127.33815" y="36.330147" z="0.0" type="traffic_light" tl="553803102" radius="1.5" keepClear="true" dong_cd="2503070"/>
    <node id="553803115" x="127.34942" y="36.33627" z="0.0" type="priority" radius="1.5" keepClear="true" dong_cd="2504065"/>
    <node id="553803211" x="127.34445" y="36.33101" z="0.0" type="priority" radius="1.5" keepClear="true" dong_cd="2503070"/>
    <node id="553803212" x="127.34465" y="36.331238" z="0.0" type="priority" radius="1.5" keepClear="true" dong_cd="2503070"/>
    <node id="553803213" x="127.34345" y="36.330128" z="0.0" type="priority" radius="1.5" keepClear="true" dong_cd="2503070"/>
    <node id="553803214" x="127.3435" y="36.329834" z="0.0" type="priority" radius="1.5" keepClear="true" dong_cd="2503070"/>
    <node id="553803215" x="127.34121" y="36.32908" z="0.0" type="priority" radius="1.5" keepClear="true" dong_cd="2503070"/>
    <node id="553803216" x="127.34166" y="36.32908" z="0.0" type="priority" radius="1.5" keepClear="true" dong_cd="2503070"/>
    <node id="553803217" x="127.34464" y="36.332123" z="0.0" type="priority" radius="1.5" keepClear="true" dong_cd="2503070"/>
    <node id="553803218" x="127.34089" y="36.330143" z="0.0" type="priority" radius="1.5" keepClear="true" dong_cd="2503070"/>
    <node id="553803219" x="127.34165" y="36.330387" z="0.0" type="priority" radius="1.5" keepClear="true" dong_cd="2503070"/>
    <node id="553803220" x="127.34089" y="36.3311" z="0.0" type="priority" radius="1.5" keepClear="true" dong_cd="2503070"/>
    <node id="553803221" x="127.34121" y="36.331093" z="0.0" type="priority" radius="1.5" keepClear="true" dong_cd="2503070"/>
    <node id="553803222" x="127.34166" y="36.331093" z="0.0" type="priority" radius="1.5" keepClear="true" dong_cd="2503070"/>
    <node id="553803223" x="127.34166" y="36.329876" z="0.0" type="priority" radius="1.5" keepClear="true" dong_cd="2503070"/>
    <node id="553803224" x="127.34143" y="36.32827" z="0.0" type="priority" radius="1.5" keepClear="true" dong_cd="2503070"/>
    <node id="553803238" x="127.33353" y="36.335766" z="0.0" type="priority" radius="1.5" keepClear="true" dong_cd="2504065"/>
    <node id="553803239" x="127.33384" y="36.335697" z="0.0" type="priority" radius="1.5" keepClear="true" dong_cd="2504065"/>
    <node id="553803243" x="127.33275" y="36.33343" z="0.0" type="priority" radius="1.5" keepClear="true" dong_cd="2504065"/>
    <node id="553803311" x="127.34066" y="36.334324" z="0.0" type="traffic_light" tl="553803311" radius="1.5" keepClear="true" dong_cd="2504065"/>
    <node id="553803312" x="127.3409" y="36.334553" z="0.0" type="priority" radius="1.5" keepClear="true" dong_cd="2504065"/>
    <node id="553803313" x="127.34467" y="36.332355" z="0.0" type="priority" radius="1.5" keepClear="true" dong_cd="2504065"/>
    <node id="553803314" x="127.33939" y="36.334835" z="0.0" type="traffic_light" tl="553803314" radius="1.5" keepClear="true" dong_cd="2504065"/>
    <node id="553803315" x="127.33942" y="36.33627" z="0.0" type="priority" radius="1.5" keepClear="true" dong_cd="2504065"/>
    <node id="553803316" x="127.3394" y="36.335175" z="0.0" type="priority" radius="1.5" keepClear="true" dong_cd="2504065"/>
    <node id="553803317" x="127.33849" y="36.335167" z="0.0" type="priority" radius="1.5" keepClear="true" dong_cd="2504065"/>
    <node id="553803318" x="127.33855" y="36.33517" z="0.0" type="priority" radius="1.5" keepClear="true" dong_cd="2504065"/>
    <node id="553803319" x="127.33855" y="36.336113" z="0.0" type="priority" radius="1.5" keepClear="true" dong_cd="2504065"/>
    <node id="553803320" x="127.33942" y="36.33613" z="0.0" type="priority" radius="1.5" keepClear="true" dong_cd="2504065"/>
    <node id="553803321" x="127.338974" y="36.33612" z="0.0" type="priority" radius="1.5" keepClear="true" dong_cd="2504065"/>
    <node id="553803322" x="127.33898" y="36.335175" z="0.0" type="priority" radius="1.5" keepClear="true" dong_cd="2504065"/>
    <node id="553803323" x="127.33818" y="36.336124" z="0.0" type="traffic_light" tl="553803323" radius="1.5" keepClear="true" dong_cd="2504065"/>
    <node id="553803324" x="127.3402" y="36.33501" z="0.0" type="priority" radius="1.5" keepClear="true" dong_cd="2504065"/>
    <node id="553803325" x="127.339836" y="36.336117" z="0.0" type="priority" radius="1.5" keepClear="true" dong_cd="2504065"/>
    <node id="553803326" x="127.33983" y="36.335148" z="0.0" type="priority" radius="1.5" keepClear="true" dong_cd="2504065"/>
    <node id="553803329" x="127.33305" y="36.333443" z="0.0" type="priority" radius="1.5" keepClear="true" dong_cd="2504065"/>
    <node id="553803330" x="127.339836" y="36.33627" z="0.0" type="priority" radius="1.5" keepClear="true" dong_cd="2504065"/>
    <node id="553803331" x="127.338974" y="36.33627" z="0.0" type="priority" radius="1.5" keepClear="true" dong_cd="2504065"/>
    <node id="553803332" x="127.338554" y="36.33627" z="0.0" type="priority" radius="1.5" keepClear="true" dong_cd="2504065"/>
    <node id="553803333" x="127.34144" y="36.331753" z="0.0" type="priority" radius="1.5" keepClear="true" dong_cd="2503070"/>
    <node id="553803334" x="127.34166" y="36.330135" z="0.0" type="priority" radius="1.5" keepClear="true" dong_cd="2503070"/>
    <node id="553803378" x="127.337" y="36.336136" z="0.0" type="priority" radius="1.5" keepClear="true" dong_cd="2504065"/>
    <node id="553803379" x="127.33699" y="36.335163" z="0.0" type="priority" radius="1.5" keepClear="true" dong_cd="2504065"/>
    <node id="553803380" x="127.337" y="36.334854" z="0.0" type="priority" radius="1.5" keepClear="true" dong_cd="2504065"/>
    <node id="553803381" x="127.337" y="36.33551" z="0.0" type="priority" radius="1.5" keepClear="true" dong_cd="2504065"/>
    <node id="553803382" x="127.33606" y="36.33552" z="0.0" type="priority" radius="1.5" keepClear="true" dong_cd="2504065"/>
    <node id="553803383" x="127.33623" y="36.33591" z="0.0" type="priority" radius="1.5" keepClear="true" dong_cd="2504065"/>
    <node id="553803384" x="127.337" y="36.335876" z="0.0" type="priority" radius="1.5" keepClear="true" dong_cd="2504065"/>
    <node id="553803385" x="127.33783" y="36.336132" z="0.0" type="priority" radius="1.5" keepClear="true" dong_cd="2504065"/>
    <node id="553803386" x="127.33742" y="36.336136" z="0.0" type="priority" radius="1.5" keepClear="true" dong_cd="2504065"/>
    <node id="553803387" x="127.33741" y="36.335155" z="0.0" type="priority" radius="1.5" keepClear="true" dong_cd="2504065"/>
    <node id="553803388" x="127.33699" y="36.333515" z="0.0" type="priority" radius="1.5" keepClear="true" dong_cd="2504065"/>
    <node id="553803389" x="127.33624" y="36.333515" z="0.0" type="priority" radius="1.5" keepClear="true" dong_cd="2504065"/>
    <node id="553803390" x="127.337" y="36.334576" z="0.0" type="priority" radius="1.5" keepClear="true" dong_cd="2504065"/>
    <node id="553803391" x="127.33778" y="36.333508" z="0.0" type="priority" radius="1.5" keepClear="true" dong_cd="2504065"/>
    <node id="553803392" x="127.33739" y="36.334576" z="0.0" type="priority" radius="1.5" keepClear="true" dong_cd="2504065"/>
    <node id="553803393" x="127.33738" y="36.33351" z="0.0" type="priority" radius="1.5" keepClear="true" dong_cd="2504065"/>
    <node id="553803394" x="127.3367" y="36.33458" z="0.0" type="priority" radius="1.5" keepClear="true" dong_cd="2504065"/>
    <node id="553803395" x="127.3367" y="36.333515" z="0.0" type="priority" radius="1.5" keepClear="true" dong_cd="2504065"/>
    <node id="553803514" x="127.32766" y="36.33185" z="0.0" type="right_before_left" radius="1.5" keepClear="true" dong_cd="2504051"/>
    <node id="553803515" x="127.33217" y="36.33319" z="0.0" type="priority" radius="1.5" keepClear="true" dong_cd="2504065"/>
    <node id="553803516" x="127.32669" y="36.33285" z="0.0" type="right_before_left" radius="1.5" keepClear="true" dong_cd="2504051"/>
    <node id="553803517" x="127.32676" y="36.332764" z="0.0" type="right_before_left" radius="1.5" keepClear="true" dong_cd="2504051"/>
    <node id="553803518" x="127.32842" y="36.33188" z="0.0" type="right_before_left" radius="1.5" keepClear="true" dong_cd="2504051"/>
    <node id="553803519" x="127.328545" y="36.331596" z="0.0" type="priority" radius="1.5" keepClear="true" dong_cd="2504051"/>
    <node id="553803522" x="127.32806" y="36.33213" z="0.0" type="priority" radius="1.5" keepClear="true" dong_cd="2504051"/>
    <node id="553803523" x="127.32647" y="36.33217" z="0.0" type="priority" radius="1.5" keepClear="true" dong_cd="2504051"/>
    <node id="553803531" x="127.33739" y="36.330143" z="0.0" type="priority" radius="1.5" keepClear="true" dong_cd="2504051"/>
    <node id="553803532" x="127.337395" y="36.330612" z="0.0" type="priority" radius="1.5" keepClear="true" dong_cd="2504051"/>
    <node id="553803533" x="127.34037" y="36.331276" z="0.0" type="priority" radius="1.5" keepClear="true" dong_cd="2503070"/>
    <node id="553803534" x="127.3389" y="36.331284" z="0.0" type="priority" radius="1.5" keepClear="true" dong_cd="2503070"/>
    <node id="553803535" x="127.3389" y="36.330578" z="0.0" type="priority" radius="1.5" keepClear="true" dong_cd="2503070"/>
    <node id="553803536" x="127.34089" y="36.33057" z="0.0" type="priority" radius="1.5" keepClear="true" dong_cd="2503070"/>
    <node id="553803537" x="127.3389" y="36.330147" z="0.0" type="priority" radius="1.5" keepClear="true" dong_cd="2503070"/>
    <node id="553803538" x="127.34038" y="36.33057" z="0.0" type="priority" radius="1.5" keepClear="true" dong_cd="2503070"/>
    <node id="553803539" x="127.33964" y="36.33164" z="0.0" type="priority" radius="1.5" keepClear="true" dong_cd="2503070"/>
    <node id="553803540" x="127.335884" y="36.332355" z="0.0" type="priority" radius="1.5" keepClear="true" dong_cd="2504065"/>
    <node id="553803543" x="127.33182" y="36.330162" z="0.0" type="priority" radius="1.5" keepClear="true" dong_cd="2504051"/>
    <node id="553803544" x="127.33591" y="36.330135" z="0.0" type="traffic_light" tl="553803544" radius="1.5" keepClear="true" dong_cd="2504051"/>
    <node id="553803545" x="127.3318" y="36.331245" z="0.0" type="priority" radius="1.5" keepClear="true" dong_cd="2504051"/>
    <node id="553803546" x="127.3318" y="36.33162" z="0.0" type="priority" radius="1.5" keepClear="true" dong_cd="2504051"/>
    <node id="553803547" x="127.33302" y="36.3286" z="0.0" type="priority" radius="1.5" keepClear="true" dong_cd="2504051"/>
    <node id="553803548" x="127.33591" y="36.328724" z="0.0" type="priority" radius="1.5" keepClear="true" dong_cd="2503070"/>
    <node id="553803549" x="127.33396" y="36.33013" z="0.0" type="priority" radius="1.5" keepClear="true" dong_cd="2504051"/>
    <node id="553803550" x="127.333954" y="36.32876" z="0.0" type="priority" radius="1.5" keepClear="true" dong_cd="2504051"/>
    <node id="553803551" x="127.33589" y="36.33129" z="0.0" type="priority" radius="1.5" keepClear="true" dong_cd="2504051"/>
    <node id="553803552" x="127.33591" y="36.33061" z="0.0" type="priority" radius="1.5" keepClear="true" dong_cd="2504051"/>
    <node id="553803553" x="127.33591" y="36.332077" z="0.0" type="priority" radius="1.5" keepClear="true" dong_cd="2504051"/>
    <node id="553803554" x="127.335144" y="36.32874" z="0.0" type="priority" radius="1.5" keepClear="true" dong_cd="2504051"/>
    <node id="553803555" x="127.33512" y="36.330135" z="0.0" type="priority" radius="1.5" keepClear="true" dong_cd="2504051"/>
    <node id="553803556" x="127.33134" y="36.330193" z="0.0" type="right_before_left" radius="1.5" keepClear="true" dong_cd="2504051"/>
    <node id="553803568" x="127.3291" y="36.33225" z="0.0" type="priority" radius="1.5" keepClear="true" dong_cd="2504051"/>
    <node id="553803583" x="127.34398" y="36.332127" z="0.0" type="priority" radius="1.5" keepClear="true" dong_cd="2503070"/>
    <node id="553803584" x="127.34428" y="36.332256" z="0.0" type="priority" radius="1.5" keepClear="true" dong_cd="2504065"/>
    <node id="553803585" x="127.34395" y="36.332355" z="0.0" type="priority" radius="1.5" keepClear="true" dong_cd="2504065"/>
    <node id="553803586" x="127.33642" y="36.332226" z="0.0" type="priority" radius="1.5" keepClear="true" dong_cd="2504065"/>
    <node id="553803587" x="127.337074" y="36.332348" z="0.0" type="priority" radius="1.5" keepClear="true" dong_cd="2504065"/>
    <node id="553803588" x="127.337036" y="36.332085" z="0.0" type="priority" radius="1.5" keepClear="true" dong_cd="2504051"/>
    <node id="553803626" x="127.35178" y="36.332146" z="0.0" type="priority" radius="1.5" keepClear="true" dong_cd="2503070"/>
    <node id="553803666" x="127.344666" y="36.333633" z="0.0" type="priority" radius="1.5" keepClear="true" dong_cd="2504065"/>
    <node id="553803667" x="127.34589" y="36.33363" z="0.0" type="priority" radius="1.5" keepClear="true" dong_cd="2504065"/>
    <node id="553803668" x="127.34566" y="36.334164" z="0.0" type="priority" radius="1.5" keepClear="true" dong_cd="2504065"/>
    <node id="553803669" x="127.34566" y="36.333626" z="0.0" type="priority" radius="1.5" keepClear="true" dong_cd="2504065"/>
    <node id="553803670" x="127.32852" y="36.332115" z="0.0" type="priority" radius="1.5" keepClear="true" dong_cd="2504051"/>
    <node id="553803671" x="127.32646" y="36.328716" z="0.0" type="right_before_left" radius="1.5" keepClear="true" dong_cd="2504051"/>
    <node id="553803673" x="127.331795" y="36.328743" z="0.0" type="priority" radius="1.5" keepClear="true" dong_cd="2504051"/>
    <node id="553803674" x="127.33265" y="36.32875" z="0.0" type="priority" radius="1.5" keepClear="true" dong_cd="2504051"/>
    <node id="553803675" x="127.33265" y="36.32811" z="0.0" type="priority" radius="1.5" keepClear="true" dong_cd="2504051"/>
    <node id="553803676" x="127.33302" y="36.32811" z="0.0" type="priority" radius="1.5" keepClear="true" dong_cd="2504051"/>
    <node id="553803752" x="127.325516" y="36.33228" z="0.0" type="priority" radius="1.5" keepClear="true" dong_cd="2504051"/>
    <node id="553804231" x="127.32169" y="36.330654" z="0.0" type="right_before_left" radius="1.5" keepClear="true" dong_cd="2504051"/>
    <node id="553804232" x="127.32456" y="36.33131" z="0.0" type="priority" radius="1.5" keepClear="true" dong_cd="2504051"/>
    <node id="553804236" x="127.323654" y="36.335327" z="0.0" type="right_before_left" radius="1.5" keepClear="true" dong_cd="2504051"/>
    <node id="553804438" x="127.331184" y="36.330696" z="0.0" type="priority" radius="1.5" keepClear="true" dong_cd="2504051"/>
    <node id="553804519" x="127.32819" y="36.334465" z="0.0" type="priority" radius="1.5" keepClear="true" dong_cd="2504064"/>
    <node id="553804520" x="127.327835" y="36.33478" z="0.0" type="right_before_left" radius="1.5" keepClear="true" dong_cd="2504064"/>
    <node id="553804521" x="127.32767" y="36.334717" z="0.0" type="priority" radius="1.5" keepClear="true" dong_cd="2504064"/>
    <node id="553804522" x="127.32561" y="36.33627" z="0.0" type="priority" radius="1.5" keepClear="true" dong_cd="2504064"/>
    <node id="553804561" x="127.352486" y="36.33225" z="0.0" type="priority" radius="1.5" keepClear="true" dong_cd="2504065"/>
    <node id="553804562" x="127.35251" y="36.33205" z="0.0" type="priority" radius="1.5" keepClear="true" dong_cd="2503070"/>
    <node id="553804563" x="127.358215" y="36.33295" z="0.0" type="priority" radius="1.5" keepClear="true" dong_cd="2503066"/>
    <node id="553804564" x="127.35847" y="36.332607" z="0.0" type="priority" radius="1.5" keepClear="true" dong_cd="2503066"/>
    <node id="553804662" x="127.33181" y="36.332375" z="0.0" type="priority" radius="1.5" keepClear="true" dong_cd="2504065"/>
    <node id="553804663" x="127.3318" y="36.332638" z="0.0" type="priority" radius="1.5" keepClear="true" dong_cd="2504065"/>
    <node id="553804664" x="127.32625" y="36.332436" z="0.0" type="priority" radius="1.5" keepClear="true" dong_cd="2504051"/>
    <node id="553804665" x="127.325226" y="36.332283" z="0.0" type="priority" radius="1.5" keepClear="true" dong_cd="2504051"/>
    <node id="553804666" x="127.32564" y="36.332413" z="0.0" type="priority" radius="1.5" keepClear="true" dong_cd="2504051"/>
    <node id="553804667" x="127.32874" y="36.332123" z="0.0" type="priority" radius="1.5" keepClear="true" dong_cd="2504051"/>
    <node id="553804668" x="127.32648" y="36.332348" z="0.0" type="priority" radius="1.5" keepClear="true" dong_cd="2504051"/>
    <node id="553804669" x="127.32807" y="36.33232" z="0.0" type="priority" radius="1.5" keepClear="true" dong_cd="2504051"/>
    <node id="553804670" x="127.32874" y="36.332317" z="0.0" type="priority" radius="1.5" keepClear="true" dong_cd="2504051"/>
    <node id="553804673" x="127.33775" y="36.329098" z="0.0" type="priority" radius="1.5" keepClear="true" dong_cd="2503070"/>
    <node id="553804674" x="127.33898" y="36.32926" z="0.0" type="priority" radius="1.5" keepClear="true" dong_cd="2503070"/>
    <node id="553804678" x="127.34788" y="36.334316" z="0.0" type="priority" radius="1.5" keepClear="true" dong_cd="2504065"/>
    <node id="553804679" x="127.34869" y="36.334293" z="0.0" type="priority" radius="1.5" keepClear="true" dong_cd="2504065"/>
    <node id="553804680" x="127.34821" y="36.333614" z="0.0" type="priority" radius="1.5" keepClear="true" dong_cd="2504065"/>
    <node id="553804681" x="127.34839" y="36.33356" z="0.0" type="priority" radius="1.5" keepClear="true" dong_cd="2504065"/>
    <node id="553804682" x="127.35192" y="36.332054" z="0.0" type="priority" radius="1.5" keepClear="true" dong_cd="2503070"/>
    <node id="553804683" x="127.352356" y="36.33205" z="0.0" type="priority" radius="1.5" keepClear="true" dong_cd="2503070"/>
    <node id="553804684" x="127.35233" y="36.332253" z="0.0" type="priority" radius="1.5" keepClear="true" dong_cd="2504065"/>
    <node id="553804685" x="127.35191" y="36.33226" z="0.0" type="priority" radius="1.5" keepClear="true" dong_cd="2504065"/>
    <node id="553804703" x="127.333916" y="36.33627" z="0.0" type="priority" radius="1.5" keepClear="true" dong_cd="2504065"/>
    <node id="553804771" x="127.34264" y="36.330135" z="0.0" type="priority" radius="1.5" keepClear="true" dong_cd="2503070"/>
    <node id="553804772" x="127.34264" y="36.330387" z="0.0" type="priority" radius="1.5" keepClear="true" dong_cd="2503070"/>
    <node id="553804773" x="127.342636" y="36.32983" z="0.0" type="priority" radius="1.5" keepClear="true" dong_cd="2503070"/>
    <node id="553804776" x="127.34131" y="36.334023" z="0.0" type="priority" radius="1.5" keepClear="true" dong_cd="2504065"/>
    <node id="553804777" x="127.341736" y="36.333927" z="0.0" type="right_before_left" radius="1.5" keepClear="true" dong_cd="2504065"/>
    <node id="553804778" x="127.341515" y="36.334118" z="0.0" type="priority" radius="1.5" keepClear="true" dong_cd="2504065"/>
    <node id="553804779" x="127.341805" y="36.332794" z="0.0" type="priority" radius="1.5" keepClear="true" dong_cd="2504065"/>
    <node id="553804780" x="127.341866" y="36.332836" z="0.0" type="right_before_left" radius="1.5" keepClear="true" dong_cd="2504065"/>
    <node id="553804781" x="127.342316" y="36.332626" z="0.0" type="priority" radius="1.5" keepClear="true" dong_cd="2504065"/>
    <node id="553804782" x="127.34384" y="36.33377" z="0.0" type="priority" radius="1.5" keepClear="true" dong_cd="2504065"/>
    <node id="553804783" x="127.343834" y="36.333645" z="0.0" type="right_before_left" radius="1.5" keepClear="true" dong_cd="2504065"/>
    <node id="553804784" x="127.344376" y="36.33322" z="0.0" type="priority" radius="1.5" keepClear="true" dong_cd="2504065"/>
    <node id="553804785" x="127.34379" y="36.333214" z="0.0" type="right_before_left" radius="1.5" keepClear="true" dong_cd="2504065"/>
    <node id="553804786" x="127.34446" y="36.332767" z="0.0" type="priority" radius="1.5" keepClear="true" dong_cd="2504065"/>
    <node id="553804878" x="127.341225" y="36.330395" z="0.0" type="priority" radius="1.5" keepClear="true" dong_cd="2503070"/>
    <node id="553805116" x="127.33397" y="36.332367" z="0.0" type="priority" radius="1.5" keepClear="true" dong_cd="2504065"/>
    <node id="553805123" x="127.334526" y="36.333073" z="0.0" type="priority" radius="1.5" keepClear="true" dong_cd="2504065"/>
    <node id="553805125" x="127.334526" y="36.33298" z="0.0" type="right_before_left" radius="1.5" keepClear="true" dong_cd="2504065"/>
    <node id="553805126" x="127.33397" y="36.33284" z="0.0" type="right_before_left" radius="1.5" keepClear="true" dong_cd="2504065"/>
    <node id="553805127" x="127.334526" y="36.332848" z="0.0" type="priority" radius="1.5" keepClear="true" dong_cd="2504065"/>
    <node id="553805128" x="127.33397" y="36.332684" z="0.0" type="right_before_left" radius="1.5" keepClear="true" dong_cd="2504065"/>
    <node id="553805147" x="127.34436" y="36.330418" z="0.0" type="priority" radius="1.5" keepClear="true" dong_cd="2503070"/>
    <node id="553805148" x="127.34491" y="36.329967" z="0.0" type="priority" radius="1.5" keepClear="true" dong_cd="2503070"/>
    <node id="553805248" x="127.3308" y="36.32999" z="0.0" type="priority" radius="1.5" keepClear="true" dong_cd="2504051"/>
    <node id="553805249" x="127.333336" y="36.332867" z="0.0" type="priority" radius="1.5" keepClear="true" dong_cd="2504065"/>
    <node id="553805373" x="127.32686" y="36.33362" z="0.0" type="right_before_left" radius="1.5" keepClear="true" dong_cd="2504064"/>
    <node id="553805375" x="127.32471" y="36.333786" z="0.0" type="right_before_left" radius="1.5" keepClear="true" dong_cd="2504051"/>
    <node id="553805376" x="127.3246" y="36.333775" z="0.0" type="priority" radius="1.5" keepClear="true" dong_cd="2504051"/>
    <node id="553805377" x="127.32267" y="36.33314" z="0.0" type="priority" radius="1.5" keepClear="true" dong_cd="2504051"/>
    <node id="553805378" x="127.32368" y="36.335274" z="0.0" type="right_before_left" radius="1.5" keepClear="true" dong_cd="2504051"/>
    <node id="553805380" x="127.32554" y="36.33252" z="0.0" type="priority" radius="1.5" keepClear="true" dong_cd="2504051"/>
    <node id="553805382" x="127.32671" y="36.33194" z="0.0" type="right_before_left" radius="1.5" keepClear="true" dong_cd="2504051"/>
    <node id="553805390" x="127.32396" y="36.33131" z="0.0" type="priority" radius="1.5" keepClear="true" dong_cd="2504051"/>
    <node id="553805391" x="127.324" y="36.331505" z="0.0" type="right_before_left" radius="1.5" keepClear="true" dong_cd="2504051"/>
    <node id="553805392" x="127.330826" y="36.32852" z="0.0" type="right_before_left" radius="1.5" keepClear="true" dong_cd="2504051"/>
    <node id="553805393" x="127.3318" y="36.329243" z="0.0" type="priority" radius="1.5" keepClear="true" dong_cd="2504051"/>
    <node id="553805394" x="127.325516" y="36.327106" z="0.0" type="right_before_left" radius="1.5" keepClear="true" dong_cd="2504051"/>
    <node id="553806566" x="127.335236" y="36.33353" z="0.0" type="priority" radius="1.5" keepClear="true" dong_cd="2504065"/>
    <node id="553806567" x="127.33543" y="36.333527" z="0.0" type="right_before_left" radius="1.5" keepClear="true" dong_cd="2504065"/>
    <node id="553806568" x="127.33522" y="36.33391" z="0.0" type="priority" radius="1.5" keepClear="true" dong_cd="2504065"/>
    <node id="553806569" x="127.33533" y="36.333714" z="0.0" type="right_before_left" radius="1.5" keepClear="true" dong_cd="2504065"/>
    <node id="553806570" x="127.33477" y="36.333557" z="0.0" type="priority" radius="1.5" keepClear="true" dong_cd="2504065"/>
    <node id="553806577" x="127.34978" y="36.33627" z="0.0" type="priority" radius="1.5" keepClear="true" dong_cd="2504065"/>
    <node id="553807192" x="127.32999" y="36.327095" z="0.0" type="right_before_left" radius="1.5" keepClear="true" dong_cd="2504051"/>
    <node id="553807193" x="127.32988" y="36.32723" z="0.0" type="right_before_left" radius="1.5" keepClear="true" dong_cd="2504051"/>
    <node id="553807194" x="127.32996" y="36.327633" z="0.0" type="priority" radius="1.5" keepClear="true" dong_cd="2504051"/>
    <node id="553807225" x="127.3271" y="36.33128" z="0.0" type="right_before_left" radius="1.5" keepClear="true" dong_cd="2504051"/>
    <node id="553807226" x="127.32711" y="36.33114" z="0.0" type="priority" radius="1.5" keepClear="true" dong_cd="2504051"/>
    <node id="553807228" x="127.32799" y="36.332474" z="0.0" type="priority" radius="1.5" keepClear="true" dong_cd="2504064"/>