<?xml version="1.0" encoding="UTF-8"?>
<!-- generated on 2021-03-31 12:41:44.389299 by $Id$ v1_8_0+0044-4820708f3d
  options: -n 5x5grid_v2.net.xml -b 0 -e 1200 -p 0.5 -o 5x5grid_v2.rou.xml <doubleminus>fringe-factor 50 -l <doubleminus>min-distance 600 <doubleminus>prefix 0_20_200_
-->
<routes xmlns:xsi="http://www.w3.org/2001/XMLSchema-instance" xsi:noNamespaceSchemaLocation="http://sumo.dlr.de/xsd/routes_file.xsd">
    <trip id="0_20_200_0" depart="0.00" from="n_3_d_to_n_3_4" to="n_0_0_to_n_0_l"/>
    <trip id="0_20_200_1" depart="0.50" from="n_1_l_to_n_0_1" to="n_0_3_to_n_3_l"/>
    <trip id="0_20_200_2" depart="1.00" from="n_3_r_to_n_4_3" to="n_4_0_to_n_0_r"/>
    <trip id="0_20_200_3" depart="1.50" from="n_4_l_to_n_0_4" to="n_0_0_to_n_0_u"/>
    <trip id="0_20_200_4" depart="2.00" from="n_2_d_to_n_2_4" to="n_0_0_to_n_0_l"/>
    <trip id="0_20_200_5" depart="2.50" from="n_1_d_to_n_1_4" to="n_2_3_to_n_3_3"/>
    <trip id="0_20_200_6" depart="3.00" from="n_0_d_to_n_0_4" to="n_0_3_to_n_3_l"/>
    <trip id="0_20_200_7" depart="3.50" from="n_1_d_to_n_1_4" to="n_3_0_to_n_3_u"/>
    <trip id="0_20_200_8" depart="4.00" from="n_4_2_to_n_4_3" to="n_0_0_to_n_0_l"/>
    <trip id="0_20_200_9" depart="4.50" from="n_1_r_to_n_4_1" to="n_0_2_to_n_2_l"/>
    <trip id="0_20_200_10" depart="5.00" from="n_4_u_to_n_4_0" to="n_1_0_to_n_0_0"/>
    <trip id="0_20_200_11" depart="5.50" from="n_0_l_to_n_0_0" to="n_0_1_to_n_1_1"/>
    <trip id="0_20_200_12" depart="6.00" from="n_4_d_to_n_4_4" to="n_3_1_to_n_2_1"/>
    <trip id="0_20_200_13" depart="6.50" from="n_4_1_to_n_4_2" to="n_4_0_to_n_4_u"/>
    <trip id="0_20_200_14" depart="7.00" from="n_2_r_to_n_4_2" to="n_4_4_to_n_4_r"/>
    <trip id="0_20_200_15" depart="7.50" from="n_1_u_to_n_1_0" to="n_2_4_to_n_2_d"/>
    <trip id="0_20_200_16" depart="8.00" from="n_4_l_to_n_0_4" to="n_3_0_to_n_3_u"/>
    <trip id="0_20_200_17" depart="8.50" from="n_3_l_to_n_0_3" to="n_0_0_to_n_0_l"/>
    <trip id="0_20_200_18" depart="9.00" from="n_0_l_to_n_0_0" to="n_0_3_to_n_3_l"/>
    <trip id="0_20_200_19" depart="9.50" from="n_0_l_to_n_0_0" to="n_0_4_to_n_0_d"/>
    <trip id="0_20_200_20" depart="10.00" from="n_3_d_to_n_3_4" to="n_1_0_to_n_1_u"/>
    <trip id="0_20_200_21" depart="10.50" from="n_1_u_to_n_1_0" to="n_0_3_to_n_3_l"/>
    <trip id="0_20_200_22" depart="11.00" from="n_1_l_to_n_0_1" to="n_4_4_to_n_4_d"/>
    <trip id="0_20_200_23" depart="11.50" from="n_3_d_to_n_3_4" to="n_3_2_to_n_3_1"/>
    <trip id="0_20_200_24" depart="12.00" from="n_0_u_to_n_0_0" to="n_4_0_to_n_4_u"/>
    <trip id="0_20_200_25" depart="12.50" from="n_4_u_to_n_4_0" to="n_3_4_to_n_3_d"/>
    <trip id="0_20_200_26" depart="13.00" from="n_2_u_to_n_2_0" to="n_4_0_to_n_0_r"/>
    <trip id="0_20_200_27" depart="13.50" from="n_4_d_to_n_4_4" to="n_4_1_to_n_1_r"/>
    <trip id="0_20_200_28" depart="14.00" from="n_1_d_to_n_1_4" to="n_0_0_to_n_0_l"/>
    <trip id="0_20_200_29" depart="14.50" from="n_1_r_to_n_4_1" to="n_0_4_to_n_0_d"/>
    <trip id="0_20_200_30" depart="15.00" from="n_1_3_to_n_2_3" to="n_4_4_to_n_4_d"/>
    <trip id="0_20_200_31" depart="15.50" from="n_3_d_to_n_3_4" to="n_1_3_to_n_2_3"/>
    <trip id="0_20_200_32" depart="16.00" from="n_4_r_to_n_4_4" to="n_2_0_to_n_2_u"/>
    <trip id="0_20_200_33" depart="16.50" from="n_1_l_to_n_0_1" to="n_0_4_to_n_0_d"/>
    <trip id="0_20_200_34" depart="17.00" from="n_2_u_to_n_2_0" to="n_0_4_to_n_0_d"/>
    <trip id="0_20_200_35" depart="17.50" from="n_2_u_to_n_2_0" to="n_4_3_to_n_3_r"/>
    <trip id="0_20_200_36" depart="18.00" from="n_2_0_to_n_1_0" to="n_0_3_to_n_3_l"/>
    <trip id="0_20_200_37" depart="18.50" from="n_4_u_to_n_4_0" to="n_2_4_to_n_2_d"/>
    <trip id="0_20_200_38" depart="19.00" from="n_0_r_to_n_4_0" to="n_3_4_to_n_3_d"/>
    <trip id="0_20_200_39" depart="19.50" from="n_3_u_to_n_3_0" to="n_1_4_to_n_1_d"/>
    <trip id="0_20_200_40" depart="20.00" from="n_0_l_to_n_0_0" to="n_1_0_to_n_1_u"/>
    <trip id="0_20_200_41" depart="20.50" from="n_4_u_to_n_4_0" to="n_2_4_to_n_2_d"/>
    <trip id="0_20_200_42" depart="21.00" from="n_4_u_to_n_4_0" to="n_4_3_to_n_3_r"/>
    <trip id="0_20_200_43" depart="21.50" from="n_0_4_to_n_1_4" to="n_4_0_to_n_4_u"/>
    <trip id="0_20_200_44" depart="22.00" from="n_3_l_to_n_0_3" to="n_2_4_to_n_2_d"/>
    <trip id="0_20_200_45" depart="22.50" from="n_1_l_to_n_0_1" to="n_3_4_to_n_3_d"/>
    <trip id="0_20_200_46" depart="23.00" from="n_0_r_to_n_4_0" to="n_1_4_to_n_1_d"/>
    <trip id="0_20_200_47" depart="23.50" from="n_2_d_to_n_2_4" to="n_4_4_to_n_4_r"/>
    <trip id="0_20_200_48" depart="24.00" from="n_1_l_to_n_0_1" to="n_3_4_to_n_3_d"/>
    <trip id="0_20_200_49" depart="24.50" from="n_3_2_to_n_3_1" to="n_0_2_to_n_2_l"/>
    <trip id="0_20_200_50" depart="25.00" from="n_3_u_to_n_3_0" to="n_2_4_to_n_2_d"/>
    <trip id="0_20_200_51" depart="25.50" from="n_3_u_to_n_3_0" to="n_2_4_to_n_2_d"/>
    <trip id="0_20_200_52" depart="26.00" from="n_0_0_to_n_0_1" to="n_0_4_to_n_4_l"/>
    <trip id="0_20_200_53" depart="26.50" from="n_0_d_to_n_0_4" to="n_4_4_to_n_4_d"/>
    <trip id="0_20_200_54" depart="27.00" from="n_4_l_to_n_0_4" to="n_4_2_to_n_2_r"/>
    <trip id="0_20_200_55" depart="27.50" from="n_1_r_to_n_4_1" to="n_0_0_to_n_0_u"/>
    <trip id="0_20_200_56" depart="28.00" from="n_4_l_to_n_0_4" to="n_4_4_to_n_4_d"/>
    <trip id="0_20_200_57" depart="28.50" from="n_0_l_to_n_0_0" to="n_2_0_to_n_2_u"/>
    <trip id="0_20_200_58" depart="29.00" from="n_0_l_to_n_0_0" to="n_4_1_to_n_1_r"/>
    <trip id="0_20_200_59" depart="29.50" from="n_3_u_to_n_3_0" to="n_0_1_to_n_1_l"/>
    <trip id="0_20_200_60" depart="30.00" from="n_2_l_to_n_0_2" to="n_2_4_to_n_2_d"/>
    <trip id="0_20_200_61" depart="30.50" from="n_1_l_to_n_0_1" to="n_4_3_to_n_3_r"/>
    <trip id="0_20_200_62" depart="31.00" from="n_2_d_to_n_2_4" to="n_0_3_to_n_3_l"/>
    <trip id="0_20_200_63" depart="31.50" from="n_2_r_to_n_4_2" to="n_4_0_to_n_4_u"/>
    <trip id="0_20_200_64" depart="32.00" from="n_1_1_to_n_1_0" to="n_0_4_to_n_4_l"/>
    <trip id="0_20_200_65" depart="32.50" from="n_4_u_to_n_4_0" to="n_3_4_to_n_3_d"/>
    <trip id="0_20_200_66" depart="33.00" from="n_0_r_to_n_4_0" to="n_0_3_to_n_3_l"/>
    <trip id="0_20_200_67" depart="33.50" from="n_1_r_to_n_4_1" to="n_3_0_to_n_3_u"/>
    <trip id="0_20_200_68" depart="34.00" from="n_1_d_to_n_1_4" to="n_0_3_to_n_3_l"/>
    <trip id="0_20_200_69" depart="34.50" from="n_0_l_to_n_0_0" to="n_3_4_to_n_3_d"/>
    <trip id="0_20_200_70" depart="35.00" from="n_1_d_to_n_1_4" to="n_4_3_to_n_4_4"/>
    <trip id="0_20_200_71" depart="35.50" from="n_4_d_to_n_4_4" to="n_0_0_to_n_0_u"/>
    <trip id="0_20_200_72" depart="36.00" from="n_1_d_to_n_1_4" to="n_4_0_to_n_0_r"/>
    <trip id="0_20_200_73" depart="36.50" from="n_1_d_to_n_1_4" to="n_0_1_to_n_1_l"/>
    <trip id="0_20_200_74" depart="37.00" from="n_4_r_to_n_4_4" to="n_3_0_to_n_3_u"/>
    <trip id="0_20_200_75" depart="37.50" from="n_2_l_to_n_0_2" to="n_4_1_to_n_1_r"/>
    <trip id="0_20_200_76" depart="38.00" from="n_4_2_to_n_3_2" to="n_0_2_to_n_2_l"/>
    <trip id="0_20_200_77" depart="38.50" from="n_0_l_to_n_0_0" to="n_1_4_to_n_1_d"/>
    <trip id="0_20_200_78" depart="39.00" from="n_2_d_to_n_2_4" to="n_2_0_to_n_2_u"/>
    <trip id="0_20_200_79" depart="39.50" from="n_3_r_to_n_4_3" to="n_4_0_to_n_0_r"/>
    <trip id="0_20_200_80" depart="40.00" from="n_4_u_to_n_4_0" to="n_0_1_to_n_1_l"/>
    <trip id="0_20_200_81" depart="40.50" from="n_2_1_to_n_1_1" to="n_1_0_to_n_1_u"/>
    <trip id="0_20_200_82" depart="41.00" from="n_0_u_to_n_0_0" to="n_2_0_to_n_2_u"/>
    <trip id="0_20_200_83" depart="41.50" from="n_2_d_to_n_2_4" to="n_0_4_to_n_0_d"/>
    <trip id="0_20_200_84" depart="42.00" from="n_1_d_to_n_1_4" to="n_4_4_to_n_4_d"/>
    <trip id="0_20_200_85" depart="42.50" from="n_2_d_to_n_2_4" to="n_4_3_to_n_3_r"/>
    <trip id="0_20_200_86" depart="43.00" from="n_2_r_to_n_4_2" to="n_0_0_to_n_0_u"/>
    <trip id="0_20_200_87" depart="43.50" from="n_4_u_to_n_4_0" to="n_4_2_to_n_2_r"/>
    <trip id="0_20_200_88" depart="44.00" from="n_4_u_to_n_4_0" to="n_4_4_to_n_4_d"/>
    <trip id="0_20_200_89" depart="44.50" from="n_4_d_to_n_4_4" to="n_0_2_to_n_2_l"/>
    <trip id="0_20_200_90" depart="45.00" from="n_2_0_to_n_3_0" to="n_0_0_to_n_0_u"/>
    <trip id="0_20_200_91" depart="45.50" from="n_1_u_to_n_1_0" to="n_4_4_to_n_4_r"/>
    <trip id="0_20_200_92" depart="46.00" from="n_1_l_to_n_0_1" to="n_4_1_to_n_1_r"/>
    <trip id="0_20_200_93" depart="46.50" from="n_4_u_to_n_4_0" to="n_4_4_to_n_4_r"/>
    <trip id="0_20_200_94" depart="47.00" from="n_2_u_to_n_2_0" to="n_4_0_to_n_4_u"/>
    <trip id="0_20_200_95" depart="47.50" from="n_0_u_to_n_0_0" to="n_0_4_to_n_4_l"/>
    <trip id="0_20_200_96" depart="48.00" from="n_2_r_to_n_4_2" to="n_4_0_to_n_4_u"/>
    <trip id="0_20_200_97" depart="48.50" from="n_0_d_to_n_0_4" to="n_3_0_to_n_3_u"/>
    <trip id="0_20_200_98" depart="49.00" from="n_2_l_to_n_0_2" to="n_4_2_to_n_2_r"/>
    <trip id="0_20_200_99" depart="49.50" from="n_0_u_to_n_0_0" to="n_4_4_to_n_4_r"/>
    <trip id="0_20_200_100" depart="50.00" from="n_0_l_to_n_0_0" to="n_0_2_to_n_2_l"/>
    <trip id="0_20_200_101" depart="50.50" from="n_2_u_to_n_2_0" to="n_4_0_to_n_0_r"/>
    <trip id="0_20_200_102" depart="51.00" from="n_1_d_to_n_1_4" to="n_0_1_to_n_1_l"/>
    <trip id="0_20_200_103" depart="51.50" from="n_2_u_to_n_2_0" to="n_3_4_to_n_3_d"/>
    <trip id="0_20_200_104" depart="52.00" from="n_2_d_to_n_2_4" to="n_3_0_to_n_3_u"/>
    <trip id="0_20_200_105" depart="52.50" from="n_2_r_to_n_4_2" to="n_4_4_to_n_4_d"/>
    <trip id="0_20_200_106" depart="53.00" from="n_1_2_to_n_0_2" to="n_4_0_to_n_4_u"/>
    <trip id="0_20_200_107" depart="53.50" from="n_1_d_to_n_1_4" to="n_1_3_to_n_2_3"/>
    <trip id="0_20_200_108" depart="54.00" from="n_1_r_to_n_4_1" to="n_4_0_to_n_4_u"/>
    <trip id="0_20_200_109" depart="54.50" from="n_0_l_to_n_0_0" to="n_2_0_to_n_2_u"/>
    <trip id="0_20_200_110" depart="55.00" from="n_4_u_to_n_4_0" to="n_4_4_to_n_4_r"/>
    <trip id="0_20_200_111" depart="55.50" from="n_0_l_to_n_0_0" to="n_0_3_to_n_3_l"/>
    <trip id="0_20_200_112" depart="56.00" from="n_1_l_to_n_0_1" to="n_4_4_to_n_4_d"/>
    <trip id="0_20_200_113" depart="56.50" from="n_4_l_to_n_0_4" to="n_4_3_to_n_3_r"/>
    <trip id="0_20_200_114" depart="57.00" from="n_1_u_to_n_1_0" to="n_0_2_to_n_2_l"/>
    <trip id="0_20_200_115" depart="57.50" from="n_4_d_to_n_4_4" to="n_4_0_to_n_0_r"/>
    <trip id="0_20_200_116" depart="58.00" from="n_3_3_to_n_2_3" to="n_4_4_to_n_4_r"/>
    <trip id="0_20_200_117" depart="58.50" from="n_3_d_to_n_3_4" to="n_0_0_to_n_0_l"/>
    <trip id="0_20_200_118" depart="59.00" from="n_4_d_to_n_4_4" to="n_0_4_to_n_4_l"/>
    <trip id="0_20_200_119" depart="59.50" from="n_0_r_to_n_4_0" to="n_0_1_to_n_1_l"/>
    <trip id="0_20_200_120" depart="60.00" from="n_0_r_to_n_4_0" to="n_2_4_to_n_2_d"/>
    <trip id="0_20_200_121" depart="60.50" from="n_1_l_to_n_0_1" to="n_3_1_to_n_3_0"/>
    <trip id="0_20_200_122" depart="61.00" from="n_3_r_to_n_4_3" to="n_0_3_to_n_3_l"/>
    <trip id="0_20_200_123" depart="61.50" from="n_3_d_to_n_3_4" to="n_0_4_to_n_0_d"/>
    <trip id="0_20_200_124" depart="62.00" from="n_2_l_to_n_0_2" to="n_4_3_to_n_4_4"/>
    <trip id="0_20_200_125" depart="62.50" from="n_4_d_to_n_4_4" to="n_0_0_to_n_0_u"/>
    <trip id="0_20_200_126" depart="63.00" from="n_2_d_to_n_2_4" to="n_0_4_to_n_0_d"/>
    <trip id="0_20_200_127" depart="63.50" from="n_0_1_to_n_0_2" to="n_4_1_to_n_1_r"/>
    <trip id="0_20_200_128" depart="64.00" from="n_3_d_to_n_3_4" to="n_0_4_to_n_0_d"/>
    <trip id="0_20_200_129" depart="64.50" from="n_3_r_to_n_4_3" to="n_2_4_to_n_2_d"/>
    <trip id="0_20_200_130" depart="65.00" from="n_2_d_to_n_2_4" to="n_0_0_to_n_0_l"/>
    <trip id="0_20_200_131" depart="65.50" from="n_0_l_to_n_0_0" to="n_4_3_to_n_3_r"/>
    <trip id="0_20_200_132" depart="66.00" from="n_4_l_to_n_0_4" to="n_2_4_to_n_2_d"/>
    <trip id="0_20_200_133" depart="66.50" from="n_4_d_to_n_4_4" to="n_3_0_to_n_3_u"/>
    <trip id="0_20_200_134" depart="67.00" from="n_0_r_to_n_4_0" to="n_0_1_to_n_1_l"/>
    <trip id="0_20_200_135" depart="67.50" from="n_1_r_to_n_4_1" to="n_4_3_to_n_3_r"/>
    <trip id="0_20_200_136" depart="68.00" from="n_3_u_to_n_3_0" to="n_4_3_to_n_3_r"/>
    <trip id="0_20_200_137" depart="68.50" from="n_1_d_to_n_1_4" to="n_0_1_to_n_1_l"/>
    <trip id="0_20_200_138" depart="69.00" from="n_3_u_to_n_3_0" to="n_4_3_to_n_3_r"/>
    <trip id="0_20_200_139" depart="69.50" from="n_2_2_to_n_1_2" to="n_3_4_to_n_3_d"/>
    <trip id="0_20_200_140" depart="70.00" from="n_0_u_to_n_0_0" to="n_4_4_to_n_4_d"/>
    <trip id="0_20_200_141" depart="70.50" from="n_4_l_to_n_0_4" to="n_4_4_to_n_4_r"/>
    <trip id="0_20_200_142" depart="71.00" from="n_0_d_to_n_0_4" to="n_4_0_to_n_4_u"/>
    <trip id="0_20_200_143" depart="71.50" from="n_1_r_to_n_4_1" to="n_4_4_to_n_4_d"/>
    <trip id="0_20_200_144" depart="72.00" from="n_3_u_to_n_3_0" to="n_4_3_to_n_3_r"/>
    <trip id="0_20_200_145" depart="72.50" from="n_4_3_to_n_3_3" to="n_0_4_to_n_0_d"/>
    <trip id="0_20_200_146" depart="73.00" from="n_3_u_to_n_3_0" to="n_0_1_to_n_1_l"/>
    <trip id="0_20_200_147" depart="73.50" from="n_4_l_to_n_0_4" to="n_4_3_to_n_3_r"/>
    <trip id="0_20_200_148" depart="74.00" from="n_1_d_to_n_1_4" to="n_4_2_to_n_2_r"/>
    <trip id="0_20_200_149" depart="74.50" from="n_2_d_to_n_2_4" to="n_0_4_to_n_4_l"/>
    <trip id="0_20_200_150" depart="75.00" from="n_3_u_to_n_3_0" to="n_0_3_to_n_3_l"/>
    <trip id="0_20_200_151" depart="75.50" from="n_0_d_to_n_0_4" to="n_0_3_to_n_0_2"/>
    <trip id="0_20_200_152" depart="76.00" from="n_1_r_to_n_4_1" to="n_4_3_to_n_3_r"/>
    <trip id="0_20_200_153" depart="76.50" from="n_4_u_to_n_4_0" to="n_0_4_to_n_0_d"/>
    <trip id="0_20_200_154" depart="77.00" from="n_3_d_to_n_3_4" to="n_1_4_to_n_1_d"/>
    <trip id="0_20_200_155" depart="77.50" from="n_4_u_to_n_4_0" to="n_2_4_to_n_2_d"/>
    <trip id="0_20_200_156" depart="78.00" from="n_4_r_to_n_4_4" to="n_0_1_to_n_1_l"/>
    <trip id="0_20_200_157" depart="78.50" from="n_4_u_to_n_4_0" to="n_0_2_to_n_2_l"/>
    <trip id="0_20_200_158" depart="79.00" from="n_4_u_to_n_4_0" to="n_0_4_to_n_0_d"/>
    <trip id="0_20_200_159" depart="79.50" from="n_0_r_to_n_4_0" to="n_1_4_to_n_1_d"/>
    <trip id="0_20_200_160" depart="80.00" from="n_3_r_to_n_4_3" to="n_0_4_to_n_4_l"/>
    <trip id="0_20_200_161" depart="80.50" from="n_3_1_to_n_3_2" to="n_2_4_to_n_2_d"/>
    <trip id="0_20_200_162" depart="81.00" from="n_1_u_to_n_1_0" to="n_3_0_to_n_3_u"/>
    <trip id="0_20_200_163" depart="81.50" from="n_1_d_to_n_1_4" to="n_4_0_to_n_0_r"/>
    <trip id="0_20_200_164" depart="82.00" from="n_0_0_to_n_1_0" to="n_4_4_to_n_4_d"/>
    <trip id="0_20_200_165" depart="82.50" from="n_2_r_to_n_4_2" to="n_4_0_to_n_4_u"/>
    <trip id="0_20_200_166" depart="83.00" from="n_3_r_to_n_4_3" to="n_4_0_to_n_0_r"/>
    <trip id="0_20_200_167" depart="83.50" from="n_3_r_to_n_4_3" to="n_0_4_to_n_4_l"/>
    <trip id="0_20_200_168" depart="84.00" from="n_1_r_to_n_4_1" to="n_1_4_to_n_1_d"/>
    <trip id="0_20_200_169" depart="84.50" from="n_2_1_to_n_1_1" to="n_0_4_to_n_4_l"/>
    <trip id="0_20_200_170" depart="85.00" from="n_0_r_to_n_4_0" to="n_1_4_to_n_1_d"/>
    <trip id="0_20_200_171" depart="85.50" from="n_4_r_to_n_4_4" to="n_4_0_to_n_0_r"/>
    <trip id="0_20_200_172" depart="86.00" from="n_4_l_to_n_0_4" to="n_3_4_to_n_2_4"/>
    <trip id="0_20_200_173" depart="86.50" from="n_1_l_to_n_0_1" to="n_2_4_to_n_2_d"/>
    <trip id="0_20_200_174" depart="87.00" from="n_0_0_to_n_0_1" to="n_0_4_to_n_0_d"/>
    <trip id="0_20_200_175" depart="87.50" from="n_2_d_to_n_2_4" to="n_3_0_to_n_3_u"/>
    <trip id="0_20_200_176" depart="88.00" from="n_3_d_to_n_3_4" to="n_2_0_to_n_2_u"/>
    <trip id="0_20_200_177" depart="88.50" from="n_2_d_to_n_2_4" to="n_0_3_to_n_3_l"/>
    <trip id="0_20_200_178" depart="89.00" from="n_2_l_to_n_0_2" to="n_4_3_to_n_3_r"/>
    <trip id="0_20_200_179" depart="89.50" from="n_3_u_to_n_3_0" to="n_0_2_to_n_2_l"/>
    <trip id="0_20_200_180" depart="90.00" from="n_0_l_to_n_0_0" to="n_2_4_to_n_2_d"/>
    <trip id="0_20_200_181" depart="90.50" from="n_3_d_to_n_3_4" to="n_0_4_to_n_4_l"/>
    <trip id="0_20_200_182" depart="91.00" from="n_4_d_to_n_4_4" to="n_4_0_to_n_4_u"/>
    <trip id="0_20_200_183" depart="91.50" from="n_1_0_to_n_2_0" to="n_0_0_to_n_0_l"/>
    <trip id="0_20_200_184" depart="92.00" from="n_1_d_to_n_1_4" to="n_2_0_to_n_2_u"/>
    <trip id="0_20_200_185" depart="92.50" from="n_4_d_to_n_4_4" to="n_0_0_to_n_0_u"/>
    <trip id="0_20_200_186" depart="93.00" from="n_0_u_to_n_0_0" to="n_4_0_to_n_0_r"/>
    <trip id="0_20_200_187" depart="93.50" from="n_2_l_to_n_0_2" to="n_0_4_to_n_0_d"/>
    <trip id="0_20_200_188" depart="94.00" from="n_3_d_to_n_3_4" to="n_0_0_to_n_0_l"/>
    <trip id="0_20_200_189" depart="94.50" from="n_3_r_to_n_4_3" to="n_4_1_to_n_1_r"/>
    <trip id="0_20_200_190" depart="95.00" from="n_0_r_to_n_4_0" to="n_1_4_to_n_1_d"/>
    <trip id="0_20_200_191" depart="95.50" from="n_0_u_to_n_0_0" to="n_4_4_to_n_4_r"/>
    <trip id="0_20_200_192" depart="96.00" from="n_2_r_to_n_4_2" to="n_0_0_to_n_0_u"/>
    <trip id="0_20_200_193" depart="96.50" from="n_1_d_to_n_1_4" to="n_4_2_to_n_2_r"/>
    <trip id="0_20_200_194" depart="97.00" from="n_2_d_to_n_2_4" to="n_4_1_to_n_1_r"/>
    <trip id="0_20_200_195" depart="97.50" from="n_3_l_to_n_0_3" to="n_4_4_to_n_4_r"/>
    <trip id="0_20_200_196" depart="98.00" from="n_2_u_to_n_2_0" to="n_4_4_to_n_4_d"/>
    <trip id="0_20_200_197" depart="98.50" from="n_4_l_to_n_0_4" to="n_3_3_to_n_3_2"/>
    <trip id="0_20_200_198" depart="99.00" from="n_3_r_to_n_4_3" to="n_2_3_to_n_3_3"/>
    <trip id="0_20_200_199" depart="99.50" from="n_4_d_to_n_4_4" to="n_2_4_to_n_2_d"/>
    <trip id="0_20_200_200" depart="100.00" from="n_4_l_to_n_0_4" to="n_4_0_to_n_4_u"/>
    <trip id="0_20_200_201" depart="100.50" from="n_2_l_to_n_0_2" to="n_0_4_to_n_0_d"/>
    <trip id="0_20_200_202" depart="101.00" from="n_1_d_to_n_1_4" to="n_3_4_to_n_3_d"/>
    <trip id="0_20_200_203" depart="101.50" from="n_3_u_to_n_3_0" to="n_2_4_to_n_2_d"/>
    <trip id="0_20_200_204" depart="102.00" from="n_3_d_to_n_3_4" to="n_0_4_to_n_0_d"/>
    <trip id="0_20_200_205" depart="102.50" from="n_0_l_to_n_0_0" to="n_0_4_to_n_0_d"/>
    <trip id="0_20_200_206" depart="103.00" from="n_1_l_to_n_0_1" to="n_0_4_to_n_4_l"/>
    <trip id="0_20_200_207" depart="103.50" from="n_2_r_to_n_4_2" to="n_0_1_to_n_1_l"/>
    <trip id="0_20_200_208" depart="104.00" from="n_1_d_to_n_1_4" to="n_4_0_to_n_0_r"/>
    <trip id="0_20_200_209" depart="104.50" from="n_3_l_to_n_0_3" to="n_0_0_to_n_0_u"/>
    <trip id="0_20_200_210" depart="105.00" from="n_2_2_to_n_2_3" to="n_2_4_to_n_2_d"/>
    <trip id="0_20_200_211" depart="105.50" from="n_2_d_to_n_2_4" to="n_0_3_to_n_3_l"/>
    <trip id="0_20_200_212" depart="106.00" from="n_2_d_to_n_2_4" to="n_4_3_to_n_4_4"/>
    <trip id="0_20_200_213" depart="106.50" from="n_2_u_to_n_2_0" to="n_4_0_to_n_0_r"/>
    <trip id="0_20_200_214" depart="107.00" from="n_4_d_to_n_4_4" to="n_4_1_to_n_1_r"/>
    <trip id="0_20_200_215" depart="107.50" from="n_1_u_to_n_1_0" to="n_0_0_to_n_0_l"/>
    <trip id="0_20_200_216" depart="108.00" from="n_1_r_to_n_4_1" to="n_4_0_to_n_4_u"/>
    <trip id="0_20_200_217" depart="108.50" from="n_2_d_to_n_2_4" to="n_4_0_to_n_4_u"/>
    <trip id="0_20_200_218" depart="109.00" from="n_2_r_to_n_4_2" to="n_3_0_to_n_4_0"/>
    <trip id="0_20_200_219" depart="109.50" from="n_1_d_to_n_1_4" to="n_0_3_to_n_3_l"/>
    <trip id="0_20_200_220" depart="110.00" from="n_2_d_to_n_2_4" to="n_0_0_to_n_0_l"/>
    <trip id="0_20_200_221" depart="110.50" from="n_2_1_to_n_2_2" to="n_0_2_to_n_2_l"/>
    <trip id="0_20_200_222" depart="111.00" from="n_3_d_to_n_3_4" to="n_0_0_to_n_0_l"/>
    <trip id="0_20_200_223" depart="111.50" from="n_1_u_to_n_1_0" to="n_3_0_to_n_3_u"/>
    <trip id="0_20_200_224" depart="112.00" from="n_0_d_to_n_0_4" to="n_3_4_to_n_3_d"/>
    <trip id="0_20_200_225" depart="112.50" from="n_0_r_to_n_4_0" to="n_2_0_to_n_2_u"/>
    <trip id="0_20_200_226" depart="113.00" from="n_0_d_to_n_0_4" to="n_1_0_to_n_1_u"/>
    <trip id="0_20_200_227" depart="113.50" from="n_1_4_to_n_0_4" to="n_0_4_to_n_4_l"/>
    <trip id="0_20_200_228" depart="114.00" from="n_3_u_to_n_3_0" to="n_1_0_to_n_1_u"/>
    <trip id="0_20_200_229" depart="114.50" from="n_1_d_to_n_1_4" to="n_0_0_to_n_0_u"/>
    <trip id="0_20_200_230" depart="115.00" from="n_0_d_to_n_0_4" to="n_2_4_to_n_2_d"/>
    <trip id="0_20_200_231" depart="115.50" from="n_4_u_to_n_4_0" to="n_1_0_to_n_1_u"/>
    <trip id="0_20_200_232" depart="116.00" from="n_3_d_to_n_3_4" to="n_4_1_to_n_1_r"/>
    <trip id="0_20_200_233" depart="116.50" from="n_3_d_to_n_3_4" to="n_4_0_to_n_4_u"/>
    <trip id="0_20_200_234" depart="117.00" from="n_4_r_to_n_4_4" to="n_0_3_to_n_3_l"/>
    <trip id="0_20_200_235" depart="117.50" from="n_0_d_to_n_0_4" to="n_0_2_to_n_2_l"/>
    <trip id="0_20_200_236" depart="118.00" from="n_2_u_to_n_2_0" to="n_0_3_to_n_3_l"/>
    <trip id="0_20_200_237" depart="118.50" from="n_3_l_to_n_0_3" to="n_4_1_to_n_1_r"/>
    <trip id="0_20_200_238" depart="119.00" from="n_0_u_to_n_0_0" to="n_3_1_to_n_4_1"/>
    <trip id="0_20_200_239" depart="119.50" from="n_3_r_to_n_4_3" to="n_0_1_to_n_1_l"/>
    <trip id="0_20_200_240" depart="120.00" from="n_0_r_to_n_4_0" to="n_0_0_to_n_0_l"/>
    <trip id="0_20_200_241" depart="120.50" from="n_4_u_to_n_4_0" to="n_1_4_to_n_0_4"/>
    <trip id="0_20_200_242" depart="121.00" from="n_3_r_to_n_4_3" to="n_0_0_to_n_0_u"/>
    <trip id="0_20_200_243" depart="121.50" from="n_3_l_to_n_0_3" to="n_3_4_to_n_3_d"/>
    <trip id="0_20_200_244" depart="122.00" from="n_0_l_to_n_0_0" to="n_4_1_to_n_1_r"/>
    <trip id="0_20_200_245" depart="122.50" from="n_4_d_to_n_4_4" to="n_3_0_to_n_3_u"/>
    <trip id="0_20_200_246" depart="123.00" from="n_0_r_to_n_4_0" to="n_4_4_to_n_4_r"/>
    <trip id="0_20_200_247" depart="123.50" from="n_3_u_to_n_3_0" to="n_1_0_to_n_1_u"/>
    <trip id="0_20_200_248" depart="124.00" from="n_2_d_to_n_2_4" to="n_1_0_to_n_1_u"/>
    <trip id="0_20_200_249" depart="124.50" from="n_2_l_to_n_0_2" to="n_1_0_to_n_1_u"/>
    <trip id="0_20_200_250" depart="125.00" from="n_4_d_to_n_4_4" to="n_4_2_to_n_2_r"/>
    <trip id="0_20_200_251" depart="125.50" from="n_0_r_to_n_4_0" to="n_4_4_to_n_4_r"/>
    <trip id="0_20_200_252" depart="126.00" from="n_3_d_to_n_3_4" to="n_4_2_to_n_2_r"/>
    <trip id="0_20_200_253" depart="126.50" from="n_3_l_to_n_0_3" to="n_1_4_to_n_1_d"/>
    <trip id="0_20_200_254" depart="127.00" from="n_1_l_to_n_0_1" to="n_4_2_to_n_2_r"/>
    <trip id="0_20_200_255" depart="127.50" from="n_2_r_to_n_4_2" to="n_2_0_to_n_2_u"/>
    <trip id="0_20_200_256" depart="128.00" from="n_2_d_to_n_2_4" to="n_4_0_to_n_4_u"/>
    <trip id="0_20_200_257" depart="128.50" from="n_1_l_to_n_0_1" to="n_4_2_to_n_2_r"/>
    <trip id="0_20_200_258" depart="129.00" from="n_4_d_to_n_4_4" to="n_0_0_to_n_0_u"/>
    <trip id="0_20_200_259" depart="129.50" from="n_2_l_to_n_0_2" to="n_3_2_to_n_4_2"/>
    <trip id="0_20_200_260" depart="130.00" from="n_1_u_to_n_1_0" to="n_0_0_to_n_0_l"/>
    <trip id="0_20_200_261" depart="130.50" from="n_4_d_to_n_4_4" to="n_0_2_to_n_2_l"/>
    <trip id="0_20_200_262" depart="131.00" from="n_1_4_to_n_1_3" to="n_4_1_to_n_1_r"/>
    <trip id="0_20_200_263" depart="131.50" from="n_1_r_to_n_4_1" to="n_4_3_to_n_3_r"/>
    <trip id="0_20_200_264" depart="132.00" from="n_3_l_to_n_0_3" to="n_0_4_to_n_0_d"/>
    <trip id="0_20_200_265" depart="132.50" from="n_0_3_to_n_1_3" to="n_4_4_to_n_4_d"/>
    <trip id="0_20_200_266" depart="133.00" from="n_0_l_to_n_0_0" to="n_4_0_to_n_4_u"/>
    <trip id="0_20_200_267" depart="133.50" from="n_2_l_to_n_0_2" to="n_4_0_to_n_4_u"/>
    <trip id="0_20_200_268" depart="134.00" from="n_3_l_to_n_0_3" to="n_3_4_to_n_3_d"/>
    <trip id="0_20_200_269" depart="134.50" from="n_2_l_to_n_0_2" to="n_4_1_to_n_1_r"/>
    <trip id="0_20_200_270" depart="135.00" from="n_0_l_to_n_0_0" to="n_0_3_to_n_3_l"/>
    <trip id="0_20_200_271" depart="135.50" from="n_2_r_to_n_4_2" to="n_1_4_to_n_1_d"/>
    <trip id="0_20_200_272" depart="136.00" from="n_3_r_to_n_4_3" to="n_0_4_to_n_4_l"/>
    <trip id="0_20_200_273" depart="136.50" from="n_3_l_to_n_0_3" to="n_0_4_to_n_0_d"/>
    <trip id="0_20_200_274" depart="137.00" from="n_1_d_to_n_1_4" to="n_0_1_to_n_1_l"/>
    <trip id="0_20_200_275" depart="137.50" from="n_0_u_to_n_0_0" to="n_0_1_to_n_1_l"/>
    <trip id="0_20_200_276" depart="138.00" from="n_0_u_to_n_0_0" to="n_0_3_to_n_3_l"/>
    <trip id="0_20_200_277" depart="138.50" from="n_2_l_to_n_0_2" to="n_4_0_to_n_4_u"/>
    <trip id="0_20_200_278" depart="139.00" from="n_4_u_to_n_4_0" to="n_2_4_to_n_2_d"/>
    <trip id="0_20_200_279" depart="139.50" from="n_0_u_to_n_0_0" to="n_0_3_to_n_3_l"/>
    <trip id="0_20_200_280" depart="140.00" from="n_2_r_to_n_4_2" to="n_0_4_to_n_0_d"/>
    <trip id="0_20_200_281" depart="140.50" from="n_4_u_to_n_4_0" to="n_2_4_to_n_2_d"/>
    <trip id="0_20_200_282" depart="141.00" from="n_3_l_to_n_0_3" to="n_0_1_to_n_1_l"/>
    <trip id="0_20_200_283" depart="141.50" from="n_4_l_to_n_0_4" to="n_2_0_to_n_2_u"/>
    <trip id="0_20_200_284" depart="142.00" from="n_4_l_to_n_0_4" to="n_3_0_to_n_3_u"/>
    <trip id="0_20_200_285" depart="142.50" from="n_2_l_to_n_0_2" to="n_1_4_to_n_1_d"/>
    <trip id="0_20_200_286" depart="143.00" from="n_4_r_to_n_4_4" to="n_2_0_to_n_2_u"/>
    <trip id="0_20_200_287" depart="143.50" from="n_4_d_to_n_4_4" to="n_1_4_to_n_1_d"/>
    <trip id="0_20_200_288" depart="144.00" from="n_0_l_to_n_0_0" to="n_3_4_to_n_3_d"/>
    <trip id="0_20_200_289" depart="144.50" from="n_0_d_to_n_0_4" to="n_0_2_to_n_2_l"/>
    <trip id="0_20_200_290" depart="145.00" from="n_2_u_to_n_2_0" to="n_0_4_to_n_4_l"/>
    <trip id="0_20_200_291" depart="145.50" from="n_4_u_to_n_4_0" to="n_0_1_to_n_1_l"/>
    <trip id="0_20_200_292" depart="146.00" from="n_3_u_to_n_3_0" to="n_3_1_to_n_3_2"/>
    <trip id="0_20_200_293" depart="146.50" from="n_3_u_to_n_3_0" to="n_0_3_to_n_3_l"/>
    <trip id="0_20_200_294" depart="147.00" from="n_2_r_to_n_4_2" to="n_2_0_to_n_2_u"/>
    <trip id="0_20_200_295" depart="147.50" from="n_2_d_to_n_2_4" to="n_4_3_to_n_3_r"/>
    <trip id="0_20_200_296" depart="148.00" from="n_4_u_to_n_4_0" to="n_0_4_to_n_4_l"/>
    <trip id="0_20_200_297" depart="148.50" from="n_3_d_to_n_3_4" to="n_3_2_to_n_3_3"/>
    <trip id="0_20_200_298" depart="149.00" from="n_3_r_to_n_4_3" to="n_4_4_to_n_4_d"/>
    <trip id="0_20_200_299" depart="149.50" from="n_1_3_to_n_0_3" to="n_0_3_to_n_3_l"/>
    <trip id="0_20_200_300" depart="150.00" from="n_3_d_to_n_3_4" to="n_0_2_to_n_2_l"/>
    <trip id="0_20_200_301" depart="150.50" from="n_0_1_to_n_0_0" to="n_2_0_to_n_2_u"/>
    <trip id="0_20_200_302" depart="151.00" from="n_2_u_to_n_2_0" to="n_0_4_to_n_4_l"/>
    <trip id="0_20_200_303" depart="151.50" from="n_1_d_to_n_1_4" to="n_4_0_to_n_0_r"/>
    <trip id="0_20_200_304" depart="152.00" from="n_3_l_to_n_0_3" to="n_2_0_to_n_2_u"/>
    <trip id="0_20_200_305" depart="152.50" from="n_3_l_to_n_0_3" to="n_4_4_to_n_4_d"/>
    <trip id="0_20_200_306" depart="153.00" from="n_3_u_to_n_3_0" to="n_3_4_to_n_3_d"/>
    <trip id="0_20_200_307" depart="153.50" from="n_4_d_to_n_4_4" to="n_0_0_to_n_0_u"/>
    <trip id="0_20_200_308" depart="154.00" from="n_0_u_to_n_0_0" to="n_0_4_to_n_4_l"/>
    <trip id="0_20_200_309" depart="154.50" from="n_3_r_to_n_4_3" to="n_3_0_to_n_3_u"/>
    <trip id="0_20_200_310" depart="155.00" from="n_3_l_to_n_0_3" to="n_4_0_to_n_0_r"/>
    <trip id="0_20_200_311" depart="155.50" from="n_4_r_to_n_4_4" to="n_2_2_to_n_2_3"/>
    <trip id="0_20_200_312" depart="156.00" from="n_2_l_to_n_0_2" to="n_0_0_to_n_0_u"/>
    <trip id="0_20_200_313" depart="156.50" from="n_1_r_to_n_4_1" to="n_0_4_to_n_0_d"/>
    <trip id="0_20_200_314" depart="157.00" from="n_0_l_to_n_0_0" to="n_4_4_to_n_4_r"/>
    <trip id="0_20_200_315" depart="157.50" from="n_4_d_to_n_4_4" to="n_3_0_to_n_3_u"/>
    <trip id="0_20_200_316" depart="158.00" from="n_3_l_to_n_0_3" to="n_0_4_to_n_0_d"/>
    <trip id="0_20_200_317" depart="158.50" from="n_0_d_to_n_0_4" to="n_4_0_to_n_4_u"/>
    <trip id="0_20_200_318" depart="159.00" from="n_2_l_to_n_0_2" to="n_3_4_to_n_3_d"/>
    <trip id="0_20_200_319" depart="159.50" from="n_4_r_to_n_4_4" to="n_0_2_to_n_2_l"/>
    <trip id="0_20_200_320" depart="160.00" from="n_2_u_to_n_2_0" to="n_3_4_to_n_3_d"/>
    <trip id="0_20_200_321" depart="160.50" from="n_2_l_to_n_0_2" to="n_0_0_to_n_0_u"/>
    <trip id="0_20_200_322" depart="161.00" from="n_1_r_to_n_4_1" to="n_0_4_to_n_4_l"/>
    <trip id="0_20_200_323" depart="161.50" from="n_3_l_to_n_0_3" to="n_4_3_to_n_3_r"/>
    <trip id="0_20_200_324" depart="162.00" from="n_1_l_to_n_0_1" to="n_4_4_to_n_4_d"/>
    <trip id="0_20_200_325" depart="162.50" from="n_4_4_to_n_3_4" to="n_2_4_to_n_2_d"/>
    <trip id="0_20_200_326" depart="163.00" from="n_2_d_to_n_2_4" to="n_0_4_to_n_4_l"/>
    <trip id="0_20_200_327" depart="163.50" from="n_1_r_to_n_4_1" to="n_4_4_to_n_4_r"/>
    <trip id="0_20_200_328" depart="164.00" from="n_2_1_to_n_2_2" to="n_2_4_to_n_2_d"/>
    <trip id="0_20_200_329" depart="164.50" from="n_4_u_to_n_4_0" to="n_3_4_to_n_3_d"/>
    <trip id="0_20_200_330" depart="165.00" from="n_2_r_to_n_4_2" to="n_1_4_to_n_1_d"/>
    <trip id="0_20_200_331" depart="165.50" from="n_3_r_to_n_4_3" to="n_3_4_to_n_3_d"/>
    <trip id="0_20_200_332" depart="166.00" from="n_3_u_to_n_3_0" to="n_0_3_to_n_3_l"/>
    <trip id="0_20_200_333" depart="166.50" from="n_2_r_to_n_4_2" to="n_4_4_to_n_4_d"/>
    <trip id="0_20_200_334" depart="167.00" from="n_2_d_to_n_2_4" to="n_4_0_to_n_0_r"/>
    <trip id="0_20_200_335" depart="167.50" from="n_0_r_to_n_4_0" to="n_4_4_to_n_4_r"/>
    <trip id="0_20_200_336" depart="168.00" from="n_3_2_to_n_3_1" to="n_0_3_to_n_3_l"/>
    <trip id="0_20_200_337" depart="168.50" from="n_0_u_to_n_0_0" to="n_2_4_to_n_2_d"/>
    <trip id="0_20_200_338" depart="169.00" from="n_2_r_to_n_4_2" to="n_0_0_to_n_0_u"/>