<?xml version="1.0" encoding="UTF-8"?>

<!-- generated on 03/23/21 22:07:36 by Eclipse SUMO netconvert Version 1.8.0
<configuration xmlns:xsi="http://www.w3.org/2001/XMLSchema-instance" xsi:noNamespaceSchemaLocation="http://sumo.dlr.de/xsd/netconvertConfiguration.xsd">

    <input>
        <node-files value="C:\traffic-optimization_RL\Experiment\Net_data\5x5grid.nod.xml"/>
        <edge-files value="C:\traffic-optimization_RL\Experiment\Net_data\5x5grid.edg.xml"/>
        <tllogic-files value="C:\traffic-optimization_RL\Experiment\Net_data\5x5grid_tl.add.xml"/>
    </input>

    <output>
        <output-file value="C:\traffic-optimization_RL\Experiment\Net_data\5x5grid.net.xml"/>
    </output>

    <junctions>
        <no-turnarounds value="true"/>
    </junctions>

    <report>
        <aggregate-warnings value="5"/>
    </report>

</configuration>
-->

<net version="1.6" junctionCornerDetail="5" limitTurnSpeed="5.50" xmlns:xsi="http://www.w3.org/2001/XMLSchema-instance" xsi:noNamespaceSchemaLocation="http://sumo.dlr.de/xsd/net_file.xsd">

    <location netOffset="1050.00,750.00" convBoundary="0.00,0.00,1800.00,1800.00" origBoundary="-1050.00,-750.00,750.00,1050.00" projParameter="!"/>

    <edge id=":n_0_0_0" function="internal">
        <lane id=":n_0_0_0_0" index="0" speed="6.51" length="9.03" shape="292.00,1513.60 291.65,1511.15 290.60,1509.40 288.85,1508.35 286.40,1508.00"/>
    </edge>
    <edge id=":n_0_0_1" function="internal">
        <lane id=":n_0_0_1_0" index="0" speed="13.89" length="27.20" shape="292.00,1513.60 292.00,1486.40"/>
        <lane id=":n_0_0_1_1" index="1" speed="13.89" length="27.20" shape="295.20,1513.60 295.20,1486.40"/>
        <lane id=":n_0_0_1_2" index="2" speed="13.89" length="27.20" shape="298.40,1513.60 298.40,1486.40"/>
    </edge>
    <edge id=":n_0_0_4" function="internal">
        <lane id=":n_0_0_4_0" index="0" speed="10.36" length="24.51" shape="298.40,1513.60 299.35,1506.95 302.20,1502.20 306.95,1499.35 313.60,1498.40"/>
    </edge>
    <edge id=":n_0_0_5" function="internal">
        <lane id=":n_0_0_5_0" index="0" speed="6.51" length="9.03" shape="313.60,1508.00 311.15,1508.35 309.40,1509.40 308.35,1511.15 308.00,1513.60"/>
    </edge>
    <edge id=":n_0_0_6" function="internal">
        <lane id=":n_0_0_6_0" index="0" speed="13.89" length="27.20" shape="313.60,1508.00 286.40,1508.00"/>
        <lane id=":n_0_0_6_1" index="1" speed="13.89" length="27.20" shape="313.60,1504.80 286.40,1504.80"/>
        <lane id=":n_0_0_6_2" index="2" speed="13.89" length="27.20" shape="313.60,1501.60 286.40,1501.60"/>
    </edge>
    <edge id=":n_0_0_9" function="internal">
        <lane id=":n_0_0_9_0" index="0" speed="10.36" length="24.51" shape="313.60,1501.60 306.95,1500.65 302.20,1497.80 299.35,1493.05 298.40,1486.40"/>
    </edge>
    <edge id=":n_0_0_10" function="internal">
        <lane id=":n_0_0_10_0" index="0" speed="6.51" length="9.03" shape="308.00,1486.40 308.35,1488.85 309.40,1490.60 311.15,1491.65 313.60,1492.00"/>
    </edge>
    <edge id=":n_0_0_11" function="internal">
        <lane id=":n_0_0_11_0" index="0" speed="13.89" length="27.20" shape="308.00,1486.40 308.00,1513.60"/>
        <lane id=":n_0_0_11_1" index="1" speed="13.89" length="27.20" shape="304.80,1486.40 304.80,1513.60"/>
        <lane id=":n_0_0_11_2" index="2" speed="13.89" length="27.20" shape="301.60,1486.40 301.60,1513.60"/>
    </edge>
    <edge id=":n_0_0_14" function="internal">
        <lane id=":n_0_0_14_0" index="0" speed="10.36" length="24.51" shape="301.60,1486.40 300.65,1493.05 297.80,1497.80 293.05,1500.65 286.40,1501.60"/>
    </edge>
    <edge id=":n_0_0_15" function="internal">
        <lane id=":n_0_0_15_0" index="0" speed="6.51" length="9.03" shape="286.40,1492.00 288.85,1491.65 290.60,1490.60 291.65,1488.85 292.00,1486.40"/>
    </edge>
    <edge id=":n_0_0_16" function="internal">
        <lane id=":n_0_0_16_0" index="0" speed="13.89" length="27.20" shape="286.40,1492.00 313.60,1492.00"/>
        <lane id=":n_0_0_16_1" index="1" speed="13.89" length="27.20" shape="286.40,1495.20 313.60,1495.20"/>
        <lane id=":n_0_0_16_2" index="2" speed="13.89" length="27.20" shape="286.40,1498.40 313.60,1498.40"/>
    </edge>
    <edge id=":n_0_0_19" function="internal">
        <lane id=":n_0_0_19_0" index="0" speed="10.36" length="24.51" shape="286.40,1498.40 293.05,1499.35 297.80,1502.20 300.65,1506.95 301.60,1513.60"/>
    </edge>
    <edge id=":n_0_1_0" function="internal">
        <lane id=":n_0_1_0_0" index="0" speed="6.51" length="9.03" shape="292.00,1213.60 291.65,1211.15 290.60,1209.40 288.85,1208.35 286.40,1208.00"/>
    </edge>
    <edge id=":n_0_1_1" function="internal">
        <lane id=":n_0_1_1_0" index="0" speed="13.89" length="27.20" shape="292.00,1213.60 292.00,1186.40"/>
        <lane id=":n_0_1_1_1" index="1" speed="13.89" length="27.20" shape="295.20,1213.60 295.20,1186.40"/>
        <lane id=":n_0_1_1_2" index="2" speed="13.89" length="27.20" shape="298.40,1213.60 298.40,1186.40"/>
    </edge>
    <edge id=":n_0_1_4" function="internal">
        <lane id=":n_0_1_4_0" index="0" speed="10.36" length="24.51" shape="298.40,1213.60 299.35,1206.95 302.20,1202.20 306.95,1199.35 313.60,1198.40"/>
    </edge>
    <edge id=":n_0_1_5" function="internal">
        <lane id=":n_0_1_5_0" index="0" speed="6.51" length="9.03" shape="313.60,1208.00 311.15,1208.35 309.40,1209.40 308.35,1211.15 308.00,1213.60"/>
    </edge>
    <edge id=":n_0_1_6" function="internal">
        <lane id=":n_0_1_6_0" index="0" speed="13.89" length="27.20" shape="313.60,1208.00 286.40,1208.00"/>
        <lane id=":n_0_1_6_1" index="1" speed="13.89" length="27.20" shape="313.60,1204.80 286.40,1204.80"/>
        <lane id=":n_0_1_6_2" index="2" speed="13.89" length="27.20" shape="313.60,1201.60 286.40,1201.60"/>
    </edge>
    <edge id=":n_0_1_9" function="internal">
        <lane id=":n_0_1_9_0" index="0" speed="10.36" length="24.51" shape="313.60,1201.60 306.95,1200.65 302.20,1197.80 299.35,1193.05 298.40,1186.40"/>
    </edge>
    <edge id=":n_0_1_10" function="internal">
        <lane id=":n_0_1_10_0" index="0" speed="6.51" length="9.03" shape="308.00,1186.40 308.35,1188.85 309.40,1190.60 311.15,1191.65 313.60,1192.00"/>
    </edge>
    <edge id=":n_0_1_11" function="internal">
        <lane id=":n_0_1_11_0" index="0" speed="13.89" length="27.20" shape="308.00,1186.40 308.00,1213.60"/>
        <lane id=":n_0_1_11_1" index="1" speed="13.89" length="27.20" shape="304.80,1186.40 304.80,1213.60"/>
        <lane id=":n_0_1_11_2" index="2" speed="13.89" length="27.20" shape="301.60,1186.40 301.60,1213.60"/>
    </edge>
    <edge id=":n_0_1_14" function="internal">
        <lane id=":n_0_1_14_0" index="0" speed="10.36" length="24.51" shape="301.60,1186.40 300.65,1193.05 297.80,1197.80 293.05,1200.65 286.40,1201.60"/>
    </edge>
    <edge id=":n_0_1_15" function="internal">
        <lane id=":n_0_1_15_0" index="0" speed="6.51" length="9.03" shape="286.40,1192.00 288.85,1191.65 290.60,1190.60 291.65,1188.85 292.00,1186.40"/>
    </edge>
    <edge id=":n_0_1_16" function="internal">
        <lane id=":n_0_1_16_0" index="0" speed="13.89" length="27.20" shape="286.40,1192.00 313.60,1192.00"/>
        <lane id=":n_0_1_16_1" index="1" speed="13.89" length="27.20" shape="286.40,1195.20 313.60,1195.20"/>
        <lane id=":n_0_1_16_2" index="2" speed="13.89" length="27.20" shape="286.40,1198.40 313.60,1198.40"/>
    </edge>
    <edge id=":n_0_1_19" function="internal">
        <lane id=":n_0_1_19_0" index="0" speed="10.36" length="24.51" shape="286.40,1198.40 293.05,1199.35 297.80,1202.20 300.65,1206.95 301.60,1213.60"/>
    </edge>
    <edge id=":n_0_2_0" function="internal">
        <lane id=":n_0_2_0_0" index="0" speed="6.51" length="9.03" shape="292.00,913.60 291.65,911.15 290.60,909.40 288.85,908.35 286.40,908.00"/>
    </edge>
    <edge id=":n_0_2_1" function="internal">
        <lane id=":n_0_2_1_0" index="0" speed="13.89" length="27.20" shape="292.00,913.60 292.00,886.40"/>
        <lane id=":n_0_2_1_1" index="1" speed="13.89" length="27.20" shape="295.20,913.60 295.20,886.40"/>
        <lane id=":n_0_2_1_2" index="2" speed="13.89" length="27.20" shape="298.40,913.60 298.40,886.40"/>
    </edge>
    <edge id=":n_0_2_4" function="internal">
        <lane id=":n_0_2_4_0" index="0" speed="10.36" length="24.51" shape="298.40,913.60 299.35,906.95 302.20,902.20 306.95,899.35 313.60,898.40"/>
    </edge>
    <edge id=":n_0_2_5" function="internal">
        <lane id=":n_0_2_5_0" index="0" speed="6.51" length="9.03" shape="313.60,908.00 311.15,908.35 309.40,909.40 308.35,911.15 308.00,913.60"/>
    </edge>
    <edge id=":n_0_2_6" function="internal">
        <lane id=":n_0_2_6_0" index="0" speed="13.89" length="27.20" shape="313.60,908.00 286.40,908.00"/>
        <lane id=":n_0_2_6_1" index="1" speed="13.89" length="27.20" shape="313.60,904.80 286.40,904.80"/>
        <lane id=":n_0_2_6_2" index="2" speed="13.89" length="27.20" shape="313.60,901.60 286.40,901.60"/>
    </edge>
    <edge id=":n_0_2_9" function="internal">
        <lane id=":n_0_2_9_0" index="0" speed="10.36" length="24.51" shape="313.60,901.60 306.95,900.65 302.20,897.80 299.35,893.05 298.40,886.40"/>
    </edge>
    <edge id=":n_0_2_10" function="internal">
        <lane id=":n_0_2_10_0" index="0" speed="6.51" length="9.03" shape="308.00,886.40 308.35,888.85 309.40,890.60 311.15,891.65 313.60,892.00"/>
    </edge>
    <edge id=":n_0_2_11" function="internal">
        <lane id=":n_0_2_11_0" index="0" speed="13.89" length="27.20" shape="308.00,886.40 308.00,913.60"/>
        <lane id=":n_0_2_11_1" index="1" speed="13.89" length="27.20" shape="304.80,886.40 304.80,913.60"/>
        <lane id=":n_0_2_11_2" index="2" speed="13.89" length="27.20" shape="301.60,886.40 301.60,913.60"/>
    </edge>
    <edge id=":n_0_2_14" function="internal">
        <lane id=":n_0_2_14_0" index="0" speed="10.36" length="24.51" shape="301.60,886.40 300.65,893.05 297.80,897.80 293.05,900.65 286.40,901.60"/>
    </edge>
    <edge id=":n_0_2_15" function="internal">
        <lane id=":n_0_2_15_0" index="0" speed="6.51" length="9.03" shape="286.40,892.00 288.85,891.65 290.60,890.60 291.65,888.85 292.00,886.40"/>
    </edge>
    <edge id=":n_0_2_16" function="internal">
        <lane id=":n_0_2_16_0" index="0" speed="13.89" length="27.20" shape="286.40,892.00 313.60,892.00"/>
        <lane id=":n_0_2_16_1" index="1" speed="13.89" length="27.20" shape="286.40,895.20 313.60,895.20"/>
        <lane id=":n_0_2_16_2" index="2" speed="13.89" length="27.20" shape="286.40,898.40 313.60,898.40"/>
    </edge>
    <edge id=":n_0_2_19" function="internal">
        <lane id=":n_0_2_19_0" index="0" speed="10.36" length="24.51" shape="286.40,898.40 293.05,899.35 297.80,902.20 300.65,906.95 301.60,913.60"/>
    </edge>
    <edge id=":n_0_3_0" function="internal">
        <lane id=":n_0_3_0_0" index="0" speed="6.51" length="9.03" shape="292.00,613.60 291.65,611.15 290.60,609.40 288.85,608.35 286.40,608.00"/>
    </edge>
    <edge id=":n_0_3_1" function="internal">
        <lane id=":n_0_3_1_0" index="0" speed="13.89" length="27.20" shape="292.00,613.60 292.00,586.40"/>
        <lane id=":n_0_3_1_1" index="1" speed="13.89" length="27.20" shape="295.20,613.60 295.20,586.40"/>
        <lane id=":n_0_3_1_2" index="2" speed="13.89" length="27.20" shape="298.40,613.60 298.40,586.40"/>
    </edge>
    <edge id=":n_0_3_4" function="internal">
        <lane id=":n_0_3_4_0" index="0" speed="10.36" length="24.51" shape="298.40,613.60 299.35,606.95 302.20,602.20 306.95,599.35 313.60,598.40"/>
    </edge>
    <edge id=":n_0_3_5" function="internal">
        <lane id=":n_0_3_5_0" index="0" speed="6.51" length="9.03" shape="313.60,608.00 311.15,608.35 309.40,609.40 308.35,611.15 308.00,613.60"/>
    </edge>
    <edge id=":n_0_3_6" function="internal">
        <lane id=":n_0_3_6_0" index="0" speed="13.89" length="27.20" shape="313.60,608.00 286.40,608.00"/>
        <lane id=":n_0_3_6_1" index="1" speed="13.89" length="27.20" shape="313.60,604.80 286.40,604.80"/>
        <lane id=":n_0_3_6_2" index="2" speed="13.89" length="27.20" shape="313.60,601.60 286.40,601.60"/>
    </edge>
    <edge id=":n_0_3_9" function="internal">
        <lane id=":n_0_3_9_0" index="0" speed="10.36" length="24.51" shape="313.60,601.60 306.95,600.65 302.20,597.80 299.35,593.05 298.40,586.40"/>
    </edge>
    <edge id=":n_0_3_10" function="internal">
        <lane id=":n_0_3_10_0" index="0" speed="6.51" length="9.03" shape="308.00,586.40 308.35,588.85 309.40,590.60 311.15,591.65 313.60,592.00"/>
    </edge>
    <edge id=":n_0_3_11" function="internal">
        <lane id=":n_0_3_11_0" index="0" speed="13.89" length="27.20" shape="308.00,586.40 308.00,613.60"/>
        <lane id=":n_0_3_11_1" index="1" speed="13.89" length="27.20" shape="304.80,586.40 304.80,613.60"/>
        <lane id=":n_0_3_11_2" index="2" speed="13.89" length="27.20" shape="301.60,586.40 301.60,613.60"/>
    </edge>
    <edge id=":n_0_3_14" function="internal">
        <lane id=":n_0_3_14_0" index="0" speed="10.36" length="24.51" shape="301.60,586.40 300.65,593.05 297.80,597.80 293.05,600.65 286.40,601.60"/>
    </edge>
    <edge id=":n_0_3_15" function="internal">
        <lane id=":n_0_3_15_0" index="0" speed="6.51" length="9.03" shape="286.40,592.00 288.85,591.65 290.60,590.60 291.65,588.85 292.00,586.40"/>
    </edge>
    <edge id=":n_0_3_16" function="internal">
        <lane id=":n_0_3_16_0" index="0" speed="13.89" length="27.20" shape="286.40,592.00 313.60,592.00"/>
        <lane id=":n_0_3_16_1" index="1" speed="13.89" length="27.20" shape="286.40,595.20 313.60,595.20"/>
        <lane id=":n_0_3_16_2" index="2" speed="13.89" length="27.20" shape="286.40,598.40 313.60,598.40"/>
    </edge>
    <edge id=":n_0_3_19" function="internal">
        <lane id=":n_0_3_19_0" index="0" speed="10.36" length="24.51" shape="286.40,598.40 293.05,599.35 297.80,602.20 300.65,606.95 301.60,613.60"/>
    </edge>
    <edge id=":n_0_4_0" function="internal">
        <lane id=":n_0_4_0_0" index="0" speed="6.51" length="9.03" shape="292.00,313.60 291.65,311.15 290.60,309.40 288.85,308.35 286.40,308.00"/>
    </edge>
    <edge id=":n_0_4_1" function="internal">
        <lane id=":n_0_4_1_0" index="0" speed="13.89" length="27.20" shape="292.00,313.60 292.00,286.40"/>
        <lane id=":n_0_4_1_1" index="1" speed="13.89" length="27.20" shape="295.20,313.60 295.20,286.40"/>
        <lane id=":n_0_4_1_2" index="2" speed="13.89" length="27.20" shape="298.40,313.60 298.40,286.40"/>
    </edge>
    <edge id=":n_0_4_4" function="internal">
        <lane id=":n_0_4_4_0" index="0" speed="10.36" length="24.51" shape="298.40,313.60 299.35,306.95 302.20,302.20 306.95,299.35 313.60,298.40"/>
    </edge>
    <edge id=":n_0_4_5" function="internal">
        <lane id=":n_0_4_5_0" index="0" speed="6.51" length="9.03" shape="313.60,308.00 311.15,308.35 309.40,309.40 308.35,311.15 308.00,313.60"/>
    </edge>
    <edge id=":n_0_4_6" function="internal">
        <lane id=":n_0_4_6_0" index="0" speed="13.89" length="27.20" shape="313.60,308.00 286.40,308.00"/>
        <lane id=":n_0_4_6_1" index="1" speed="13.89" length="27.20" shape="313.60,304.80 286.40,304.80"/>
        <lane id=":n_0_4_6_2" index="2" speed="13.89" length="27.20" shape="313.60,301.60 286.40,301.60"/>
    </edge>
    <edge id=":n_0_4_9" function="internal">
        <lane id=":n_0_4_9_0" index="0" speed="10.36" length="24.51" shape="313.60,301.60 306.95,300.65 302.20,297.80 299.35,293.05 298.40,286.40"/>
    </edge>
    <edge id=":n_0_4_10" function="internal">
        <lane id=":n_0_4_10_0" index="0" speed="6.51" length="9.03" shape="308.00,286.40 308.35,288.85 309.40,290.60 311.15,291.65 313.60,292.00"/>
    </edge>
    <edge id=":n_0_4_11" function="internal">
        <lane id=":n_0_4_11_0" index="0" speed="13.89" length="27.20" shape="308.00,286.40 308.00,313.60"/>
        <lane id=":n_0_4_11_1" index="1" speed="13.89" length="27.20" shape="304.80,286.40 304.80,313.60"/>
        <lane id=":n_0_4_11_2" index="2" speed="13.89" length="27.20" shape="301.60,286.40 301.60,313.60"/>
    </edge>
    <edge id=":n_0_4_14" function="internal">
        <lane id=":n_0_4_14_0" index="0" speed="10.36" length="24.51" shape="301.60,286.40 300.65,293.05 297.80,297.80 293.05,300.65 286.40,301.60"/>
    </edge>
    <edge id=":n_0_4_15" function="internal">
        <lane id=":n_0_4_15_0" index="0" speed="6.51" length="9.03" shape="286.40,292.00 288.85,291.65 290.60,290.60 291.65,288.85 292.00,286.40"/>
    </edge>
    <edge id=":n_0_4_16" function="internal">
        <lane id=":n_0_4_16_0" index="0" speed="13.89" length="27.20" shape="286.40,292.00 313.60,292.00"/>
        <lane id=":n_0_4_16_1" index="1" speed="13.89" length="27.20" shape="286.40,295.20 313.60,295.20"/>
        <lane id=":n_0_4_16_2" index="2" speed="13.89" length="27.20" shape="286.40,298.40 313.60,298.40"/>
    </edge>
    <edge id=":n_0_4_19" function="internal">
        <lane id=":n_0_4_19_0" index="0" speed="10.36" length="24.51" shape="286.40,298.40 293.05,299.35 297.80,302.20 300.65,306.95 301.60,313.60"/>
    </edge>
    <edge id=":n_1_0_0" function="internal">
        <lane id=":n_1_0_0_0" index="0" speed="6.51" length="9.03" shape="592.00,1513.60 591.65,1511.15 590.60,1509.40 588.85,1508.35 586.40,1508.00"/>
    </edge>
    <edge id=":n_1_0_1" function="internal">
        <lane id=":n_1_0_1_0" index="0" speed="13.89" length="27.20" shape="592.00,1513.60 592.00,1486.40"/>
        <lane id=":n_1_0_1_1" index="1" speed="13.89" length="27.20" shape="595.20,1513.60 595.20,1486.40"/>
        <lane id=":n_1_0_1_2" index="2" speed="13.89" length="27.20" shape="598.40,1513.60 598.40,1486.40"/>
    </edge>
    <edge id=":n_1_0_4" function="internal">
        <lane id=":n_1_0_4_0" index="0" speed="10.36" length="24.51" shape="598.40,1513.60 599.35,1506.95 602.20,1502.20 606.95,1499.35 613.60,1498.40"/>
    </edge>
    <edge id=":n_1_0_5" function="internal">
        <lane id=":n_1_0_5_0" index="0" speed="6.51" length="9.03" shape="613.60,1508.00 611.15,1508.35 609.40,1509.40 608.35,1511.15 608.00,1513.60"/>
    </edge>
    <edge id=":n_1_0_6" function="internal">
        <lane id=":n_1_0_6_0" index="0" speed="13.89" length="27.20" shape="613.60,1508.00 586.40,1508.00"/>
        <lane id=":n_1_0_6_1" index="1" speed="13.89" length="27.20" shape="613.60,1504.80 586.40,1504.80"/>
        <lane id=":n_1_0_6_2" index="2" speed="13.89" length="27.20" shape="613.60,1501.60 586.40,1501.60"/>
    </edge>
    <edge id=":n_1_0_9" function="internal">
        <lane id=":n_1_0_9_0" index="0" speed="10.36" length="24.51" shape="613.60,1501.60 606.95,1500.65 602.20,1497.80 599.35,1493.05 598.40,1486.40"/>
    </edge>
    <edge id=":n_1_0_10" function="internal">
        <lane id=":n_1_0_10_0" index="0" speed="6.51" length="9.03" shape="608.00,1486.40 608.35,1488.85 609.40,1490.60 611.15,1491.65 613.60,1492.00"/>
    </edge>
    <edge id=":n_1_0_11" function="internal">
        <lane id=":n_1_0_11_0" index="0" speed="13.89" length="27.20" shape="608.00,1486.40 608.00,1513.60"/>
        <lane id=":n_1_0_11_1" index="1" speed="13.89" length="27.20" shape="604.80,1486.40 604.80,1513.60"/>
        <lane id=":n_1_0_11_2" index="2" speed="13.89" length="27.20" shape="601.60,1486.40 601.60,1513.60"/>
    </edge>
    <edge id=":n_1_0_14" function="internal">
        <lane id=":n_1_0_14_0" index="0" speed="10.36" length="24.51" shape="601.60,1486.40 600.65,1493.05 597.80,1497.80 593.05,1500.65 586.40,1501.60"/>
    </edge>
    <edge id=":n_1_0_15" function="internal">
        <lane id=":n_1_0_15_0" index="0" speed="6.51" length="9.03" shape="586.40,1492.00 588.85,1491.65 590.60,1490.60 591.65,1488.85 592.00,1486.40"/>
    </edge>
    <edge id=":n_1_0_16" function="internal">
        <lane id=":n_1_0_16_0" index="0" speed="13.89" length="27.20" shape="586.40,1492.00 613.60,1492.00"/>
        <lane id=":n_1_0_16_1" index="1" speed="13.89" length="27.20" shape="586.40,1495.20 613.60,1495.20"/>
        <lane id=":n_1_0_16_2" index="2" speed="13.89" length="27.20" shape="586.40,1498.40 613.60,1498.40"/>
    </edge>
    <edge id=":n_1_0_19" function="internal">
        <lane id=":n_1_0_19_0" index="0" speed="10.36" length="24.51" shape="586.40,1498.40 593.05,1499.35 597.80,1502.20 600.65,1506.95 601.60,1513.60"/>
    </edge>
    <edge id=":n_1_1_0" function="internal">
        <lane id=":n_1_1_0_0" index="0" speed="6.51" length="9.03" shape="592.00,1213.60 591.65,1211.15 590.60,1209.40 588.85,1208.35 586.40,1208.00"/>
    </edge>
    <edge id=":n_1_1_1" function="internal">
        <lane id=":n_1_1_1_0" index="0" speed="13.89" length="27.20" shape="592.00,1213.60 592.00,1186.40"/>
        <lane id=":n_1_1_1_1" index="1" speed="13.89" length="27.20" shape="595.20,1213.60 595.20,1186.40"/>
        <lane id=":n_1_1_1_2" index="2" speed="13.89" length="27.20" shape="598.40,1213.60 598.40,1186.40"/>
    </edge>
    <edge id=":n_1_1_4" function="internal">
        <lane id=":n_1_1_4_0" index="0" speed="10.36" length="24.51" shape="598.40,1213.60 599.35,1206.95 602.20,1202.20 606.95,1199.35 613.60,1198.40"/>
    </edge>
    <edge id=":n_1_1_5" function="internal">
        <lane id=":n_1_1_5_0" index="0" speed="6.51" length="9.03" shape="613.60,1208.00 611.15,1208.35 609.40,1209.40 608.35,1211.15 608.00,1213.60"/>
    </edge>
    <edge id=":n_1_1_6" function="internal">
        <lane id=":n_1_1_6_0" index="0" speed="13.89" length="27.20" shape="613.60,1208.00 586.40,1208.00"/>
        <lane id=":n_1_1_6_1" index="1" speed="13.89" length="27.20" shape="613.60,1204.80 586.40,1204.80"/>
        <lane id=":n_1_1_6_2" index="2" speed="13.89" length="27.20" shape="613.60,1201.60 586.40,1201.60"/>
    </edge>
    <edge id=":n_1_1_9" function="internal">
        <lane id=":n_1_1_9_0" index="0" speed="10.36" length="24.51" shape="613.60,1201.60 606.95,1200.65 602.20,1197.80 599.35,1193.05 598.40,1186.40"/>
    </edge>
    <edge id=":n_1_1_10" function="internal">
        <lane id=":n_1_1_10_0" index="0" speed="6.51" length="9.03" shape="608.00,1186.40 608.35,1188.85 609.40,1190.60 611.15,1191.65 613.60,1192.00"/>
    </edge>
    <edge id=":n_1_1_11" function="internal">
        <lane id=":n_1_1_11_0" index="0" speed="13.89" length="27.20" shape="608.00,1186.40 608.00,1213.60"/>
        <lane id=":n_1_1_11_1" index="1" speed="13.89" length="27.20" shape="604.80,1186.40 604.80,1213.60"/>
        <lane id=":n_1_1_11_2" index="2" speed="13.89" length="27.20" shape="601.60,1186.40 601.60,1213.60"/>
    </edge>
    <edge id=":n_1_1_14" function="internal">
        <lane id=":n_1_1_14_0" index="0" speed="10.36" length="24.51" shape="601.60,1186.40 600.65,1193.05 597.80,1197.80 593.05,1200.65 586.40,1201.60"/>
    </edge>
    <edge id=":n_1_1_15" function="internal">
        <lane id=":n_1_1_15_0" index="0" speed="6.51" length="9.03" shape="586.40,1192.00 588.85,1191.65 590.60,1190.60 591.65,1188.85 592.00,1186.40"/>
    </edge>
    <edge id=":n_1_1_16" function="internal">
        <lane id=":n_1_1_16_0" index="0" speed="13.89" length="27.20" shape="586.40,1192.00 613.60,1192.00"/>
        <lane id=":n_1_1_16_1" index="1" speed="13.89" length="27.20" shape="586.40,1195.20 613.60,1195.20"/>
        <lane id=":n_1_1_16_2" index="2" speed="13.89" length="27.20" shape="586.40,1198.40 613.60,1198.40"/>
    </edge>
    <edge id=":n_1_1_19" function="internal">
        <lane id=":n_1_1_19_0" index="0" speed="10.36" length="24.51" shape="586.40,1198.40 593.05,1199.35 597.80,1202.20 600.65,1206.95 601.60,1213.60"/>
    </edge>
    <edge id=":n_1_2_0" function="internal">
        <lane id=":n_1_2_0_0" index="0" speed="6.51" length="9.03" shape="592.00,913.60 591.65,911.15 590.60,909.40 588.85,908.35 586.40,908.00"/>
    </edge>
    <edge id=":n_1_2_1" function="internal">
        <lane id=":n_1_2_1_0" index="0" speed="13.89" length="27.20" shape="592.00,913.60 592.00,886.40"/>
        <lane id=":n_1_2_1_1" index="1" speed="13.89" length="27.20" shape="595.20,913.60 595.20,886.40"/>
        <lane id=":n_1_2_1_2" index="2" speed="13.89" length="27.20" shape="598.40,913.60 598.40,886.40"/>
    </edge>
    <edge id=":n_1_2_4" function="internal">
        <lane id=":n_1_2_4_0" index="0" speed="10.36" length="24.51" shape="598.40,913.60 599.35,906.95 602.20,902.20 606.95,899.35 613.60,898.40"/>
    </edge>
    <edge id=":n_1_2_5" function="internal">
        <lane id=":n_1_2_5_0" index="0" speed="6.51" length="9.03" shape="613.60,908.00 611.15,908.35 609.40,909.40 608.35,911.15 608.00,913.60"/>
    </edge>
    <edge id=":n_1_2_6" function="internal">
        <lane id=":n_1_2_6_0" index="0" speed="13.89" length="27.20" shape="613.60,908.00 586.40,908.00"/>
        <lane id=":n_1_2_6_1" index="1" speed="13.89" length="27.20" shape="613.60,904.80 586.40,904.80"/>
        <lane id=":n_1_2_6_2" index="2" speed="13.89" length="27.20" shape="613.60,901.60 586.40,901.60"/>
    </edge>
    <edge id=":n_1_2_9" function="internal">
        <lane id=":n_1_2_9_0" index="0" speed="10.36" length="24.51" shape="613.60,901.60 606.95,900.65 602.20,897.80 599.35,893.05 598.40,886.40"/>
    </edge>
    <edge id=":n_1_2_10" function="internal">
        <lane id=":n_1_2_10_0" index="0" speed="6.51" length="9.03" shape="608.00,886.40 608.35,888.85 609.40,890.60 611.15,891.65 613.60,892.00"/>
    </edge>
    <edge id=":n_1_2_11" function="internal">
        <lane id=":n_1_2_11_0" index="0" speed="13.89" length="27.20" shape="608.00,886.40 608.00,913.60"/>
        <lane id=":n_1_2_11_1" index="1" speed="13.89" length="27.20" shape="604.80,886.40 604.80,913.60"/>
        <lane id=":n_1_2_11_2" index="2" speed="13.89" length="27.20" shape="601.60,886.40 601.60,913.60"/>
    </edge>
    <edge id=":n_1_2_14" function="internal">
        <lane id=":n_1_2_14_0" index="0" speed="10.36" length="24.51" shape="601.60,886.40 600.65,893.05 597.80,897.80 593.05,900.65 586.40,901.60"/>
    </edge>
    <edge id=":n_1_2_15" function="internal">
        <lane id=":n_1_2_15_0" index="0" speed="6.51" length="9.03" shape="586.40,892.00 588.85,891.65 590.60,890.60 591.65,888.85 592.00,886.40"/>
    </edge>
    <edge id=":n_1_2_16" function="internal">
        <lane id=":n_1_2_16_0" index="0" speed="13.89" length="27.20" shape="586.40,892.00 613.60,892.00"/>
        <lane id=":n_1_2_16_1" index="1" speed="13.89" length="27.20" shape="586.40,895.20 613.60,895.20"/>
        <lane id=":n_1_2_16_2" index="2" speed="13.89" length="27.20" shape="586.40,898.40 613.60,898.40"/>
    </edge>
    <edge id=":n_1_2_19" function="internal">
        <lane id=":n_1_2_19_0" index="0" speed="10.36" length="24.51" shape="586.40,898.40 593.05,899.35 597.80,902.20 600.65,906.95 601.60,913.60"/>
    </edge>
    <edge id=":n_1_3_0" function="internal">
        <lane id=":n_1_3_0_0" index="0" speed="6.51" length="9.03" shape="592.00,613.60 591.65,611.15 590.60,609.40 588.85,608.35 586.40,608.00"/>
    </edge>
    <edge id=":n_1_3_1" function="internal">
        <lane id=":n_1_3_1_0" index="0" speed="13.89" length="27.20" shape="592.00,613.60 592.00,586.40"/>
        <lane id=":n_1_3_1_1" index="1" speed="13.89" length="27.20" shape="595.20,613.60 595.20,586.40"/>
        <lane id=":n_1_3_1_2" index="2" speed="13.89" length="27.20" shape="598.40,613.60 598.40,586.40"/>
    </edge>
    <edge id=":n_1_3_4" function="internal">
        <lane id=":n_1_3_4_0" index="0" speed="10.36" length="24.51" shape="598.40,613.60 599.35,606.95 602.20,602.20 606.95,599.35 613.60,598.40"/>
    </edge>
    <edge id=":n_1_3_5" function="internal">
        <lane id=":n_1_3_5_0" index="0" speed="6.51" length="9.03" shape="613.60,608.00 611.15,608.35 609.40,609.40 608.35,611.15 608.00,613.60"/>
    </edge>
    <edge id=":n_1_3_6" function="internal">
        <lane id=":n_1_3_6_0" index="0" speed="13.89" length="27.20" shape="613.60,608.00 586.40,608.00"/>
        <lane id=":n_1_3_6_1" index="1" speed="13.89" length="27.20" shape="613.60,604.80 586.40,604.80"/>
        <lane id=":n_1_3_6_2" index="2" speed="13.89" length="27.20" shape="613.60,601.60 586.40,601.60"/>
    </edge>
    <edge id=":n_1_3_9" function="internal">
        <lane id=":n_1_3_9_0" index="0" speed="10.36" length="24.51" shape="613.60,601.60 606.95,600.65 602.20,597.80 599.35,593.05 598.40,586.40"/>
    </edge>
    <edge id=":n_1_3_10" function="internal">
        <lane id=":n_1_3_10_0" index="0" speed="6.51" length="9.03" shape="608.00,586.40 608.35,588.85 609.40,590.60 611.15,591.65 613.60,592.00"/>
    </edge>
    <edge id=":n_1_3_11" function="internal">
        <lane id=":n_1_3_11_0" index="0" speed="13.89" length="27.20" shape="608.00,586.40 608.00,613.60"/>
        <lane id=":n_1_3_11_1" index="1" speed="13.89" length="27.20" shape="604.80,586.40 604.80,613.60"/>
        <lane id=":n_1_3_11_2" index="2" speed="13.89" length="27.20" shape="601.60,586.40 601.60,613.60"/>
    </edge>
    <edge id=":n_1_3_14" function="internal">
        <lane id=":n_1_3_14_0" index="0" speed="10.36" length="24.51" shape="601.60,586.40 600.65,593.05 597.80,597.80 593.05,600.65 586.40,601.60"/>
    </edge>
    <edge id=":n_1_3_15" function="internal">
        <lane id=":n_1_3_15_0" index="0" speed="6.51" length="9.03" shape="586.40,592.00 588.85,591.65 590.60,590.60 591.65,588.85 592.00,586.40"/>
    </edge>
    <edge id=":n_1_3_16" function="internal">
        <lane id=":n_1_3_16_0" index="0" speed="13.89" length="27.20" shape="586.40,592.00 613.60,592.00"/>
        <lane id=":n_1_3_16_1" index="1" speed="13.89" length="27.20" shape="586.40,595.20 613.60,595.20"/>
        <lane id=":n_1_3_16_2" index="2" speed="13.89" length="27.20" shape="586.40,598.40 613.60,598.40"/>
    </edge>
    <edge id=":n_1_3_19" function="internal">
        <lane id=":n_1_3_19_0" index="0" speed="10.36" length="24.51" shape="586.40,598.40 593.05,599.35 597.80,602.20 600.65,606.95 601.60,613.60"/>
    </edge>