<?xml version="1.0" encoding="UTF-8" standalone="yes"?>

<edges version="1.0" xmlns:xsi="http://www.w3.org/2001/XMLSchema-instance" xsi:noNamespaceSchemaLocation=".\xsd\salt_edges_file.xsd">
    <edge id="-553803481" from="553803038" to="553803036" priority="0" numLanes="1" speed="30.00" shape="127.340535,36.333509 127.340939,36.333504" dong_cd="2504065" edge_len="36.00"/>
    <edge id="-553803483" from="553803039" to="553803037" priority="0" numLanes="1" speed="30.00" shape="127.340383,36.333508 127.340139,36.333504" dong_cd="2504065" edge_len="22.00"/>
    <edge id="-553803484" from="553803039" to="553803038" priority="0" numLanes="1" speed="30.00" shape="127.340383,36.333508 127.340535,36.333509" dong_cd="2504065" edge_len="14.00"/>
    <edge id="-553803485" from="553803040" to="553803035" priority="0" numLanes="1" speed="30.00" shape="127.338687,36.333507 127.338155,36.333507" dong_cd="2504065" edge_len="48.00"/>
    <edge id="-553803486" from="553803040" to="553803037" priority="0" numLanes="1" speed="30.00" shape="127.338687,36.333507 127.340139,36.333504" dong_cd="2504065" edge_len="130.00"/>
    <edge id="-553803566" from="553803098" to="553802930" priority="0" numLanes="1" speed="30.00" shape="127.338800,36.334840 127.338165,36.334839" dong_cd="2504065" edge_len="57.00"/>
    <edge id="-553803568" from="553803035" to="553802930" priority="0" numLanes="2" speed="30.00" shape="127.338155,36.333507 127.338165,36.334839" dong_cd="2504065" edge_len="148.00"/>
    <edge id="-553803569" from="553803101" to="553803036" priority="0" numLanes="1" speed="10.00" shape="127.341877,36.333428 127.341422,36.333488 127.341283,36.333497 127.340939,36.333504" dong_cd="2504065" edge_len="85.00"/>
    <edge id="-553803740" from="553803217" to="553803212" priority="0" numLanes="1" speed="30.00" shape="127.344643,36.332122 127.344649,36.331236" dong_cd="2503070" edge_len="98.00"/>
    <edge id="-553803773" from="553803239" to="553803096" priority="0" numLanes="2" speed="40.00" shape="127.333837,36.335698 127.334200,36.336250 127.334218,36.336269" dong_cd="2504065" spreadType="center" edge_len="72.00"/>
    <edge id="-553803885" from="553803311" to="553803036" priority="0" numLanes="1" speed="40.00" shape="127.340660,36.334325 127.340815,36.334116 127.340863,36.334036 127.340892,36.333979 127.340914,36.333917 127.340925,36.333817 127.340939,36.333504" dong_cd="2504065" edge_len="97.00"/>
    <edge id="-553803886" from="553803312" to="553803311" priority="0" numLanes="1" speed="40.00" shape="127.340900,36.334551 127.340660,36.334325" dong_cd="2504065" edge_len="33.00"/>
    <edge id="-553803887" from="553803314" to="553803098" priority="0" numLanes="1" speed="30.00" shape="127.339392,36.334836 127.338800,36.334840" dong_cd="2504065" edge_len="53.00"/>
    <edge id="-553803888" from="553803314" to="553803311" priority="0" numLanes="1" speed="30.00" shape="127.339392,36.334836 127.339673,36.334834 127.339778,36.334828 127.339893,36.334804 127.339995,36.334780 127.340166,36.334701 127.340306,36.334620 127.340372,36.334575 127.340447,36.334512 127.340608,36.334373 127.340660,36.334325" dong_cd="2504065" edge_len="134.00"/>
    <edge id="-553803889" from="553803316" to="553803314" priority="0" numLanes="1" speed="30.00" shape="127.339398,36.335175 127.339392,36.334836" dong_cd="2504065" edge_len="38.00"/>
    <edge id="-553803892" from="553803320" to="553803315" priority="0" numLanes="1" speed="30.00" shape="127.339416,36.336129 127.339417,36.336269" dong_cd="2504065" edge_len="16.00"/>
    <edge id="-553803893" from="553803320" to="553803316" priority="0" numLanes="1" speed="30.00" shape="127.339416,36.336129 127.339398,36.335175" dong_cd="2504065" edge_len="106.00"/>
    <edge id="-553803894" from="553803321" to="553803319" priority="0" numLanes="1" speed="30.00" shape="127.338976,36.336121 127.338550,36.336113" dong_cd="2504065" edge_len="38.00"/>
    <edge id="-553803895" from="553803321" to="553803320" priority="0" numLanes="1" speed="30.00" shape="127.338976,36.336121 127.339416,36.336129" dong_cd="2504065" edge_len="40.00"/>
    <edge id="-553803899" from="553803323" to="553802930" priority="0" numLanes="2" speed="30.00" shape="127.338180,36.336125 127.338165,36.334839" dong_cd="2504065" edge_len="143.00"/>
    <edge id="-553803900" from="553803323" to="553802934" priority="0" numLanes="2" speed="50.00" shape="127.338180,36.336125 127.338183,36.336269" dong_cd="2504065" edge_len="16.00"/>
    <edge id="-553803901" from="553803323" to="553803319" priority="0" numLanes="1" speed="30.00" shape="127.338180,36.336125 127.338550,36.336113" dong_cd="2504065" edge_len="33.00"/>
    <edge id="-553803902" from="553803324" to="553803312" priority="0" numLanes="1" speed="30.00" shape="127.340204,36.335011 127.340401,36.334932 127.340791,36.334667 127.340900,36.334551" dong_cd="2504065" edge_len="82.00"/>
    <edge id="-553803904" from="553803326" to="553803316" priority="0" numLanes="1" speed="30.00" shape="127.339827,36.335147 127.339398,36.335175" dong_cd="2504065" edge_len="39.00"/>
    <edge id="-553803905" from="553803326" to="553803324" priority="0" numLanes="1" speed="30.00" shape="127.339827,36.335147 127.339933,36.335120 127.340204,36.335011" dong_cd="2504065" edge_len="37.00"/>
    <edge id="-553803909" from="553803329" to="cluster_553803242_553803328" priority="0" numLanes="4" speed="60.00" shape="127.333053,36.333443 127.333200,36.334146" dong_cd="2504065" spreadType="center" edge_len="79.00"/>
    <edge id="-553803918" from="553803334" to="553803218" priority="0" numLanes="1" speed="30.00" shape="127.341660,36.330137 127.340886,36.330143" dong_cd="2503070" edge_len="69.00"/>
    <edge id="-553803930" from="cluster_553803340_553803341" to="cluster_553803242_553803328" priority="0" numLanes="4" speed="60.00" shape="127.333166,36.334875 127.332997,36.334434 127.332897,36.334134" dong_cd="2504065" spreadType="center" edge_len="86.00"/>
    <edge id="-553803931" from="cluster_553803340_553803341" to="553803239" priority="0" numLanes="4" speed="60.00" shape="127.333465,36.334853 127.333837,36.335698" dong_cd="2504065" spreadType="center" edge_len="100.00"/>
    <edge id="-553803971" from="553803380" to="553802930" priority="0" numLanes="1" speed="30.00" shape="127.336999,36.334856 127.338165,36.334839" dong_cd="2504065" edge_len="105.00"/>
    <edge id="-553803982" from="553803385" to="553803323" priority="0" numLanes="1" speed="30.00" shape="127.337828,36.336132 127.338180,36.336125" dong_cd="2504065" edge_len="32.00"/>
    <edge id="-553803991" from="553803391" to="553803035" priority="0" numLanes="1" speed="30.00" shape="127.337786,36.333509 127.338155,36.333507" dong_cd="2504065" edge_len="33.00"/>
    <edge id="-553804216" from="553803531" to="553803102" priority="0" numLanes="1" speed="40.00" shape="127.337390,36.330142 127.338142,36.330148 127.338152,36.330148" dong_cd="2503070" edge_len="68.00"/>
    <edge id="-553804219" from="553803536" to="553803218" priority="0" numLanes="1" speed="40.00" shape="127.340888,36.330571 127.340886,36.330143" dong_cd="2503070" edge_len="47.00"/>
    <edge id="-553804220" from="553803536" to="553803220" priority="0" numLanes="1" speed="40.00" shape="127.340888,36.330571 127.340891,36.331100" dong_cd="2503070" edge_len="59.00"/>
    <edge id="-553804221" from="553803537" to="553803102" priority="0" numLanes="1" speed="40.00" shape="127.338898,36.330146 127.338152,36.330148" dong_cd="2503070" edge_len="67.00"/>
    <edge id="-553804222" from="553803537" to="553803218" priority="0" numLanes="1" speed="40.00" shape="127.338898,36.330146 127.340886,36.330143" dong_cd="2503070" edge_len="178.00"/>
    <edge id="-553804240" from="553803544" to="553803531" priority="0" numLanes="1" speed="40.00" shape="127.335906,36.330136 127.335912,36.330136 127.336366,36.330138 127.337390,36.330142" dong_cd="2503070" edge_len="133.00"/>
    <edge id="-553804242" from="553803548" to="553803544" priority="0" numLanes="1" speed="40.00" shape="127.335910,36.328725 127.335908,36.329388 127.335906,36.330136" dong_cd="2503070" edge_len="157.00"/>
    <edge id="-553804246" from="553803552" to="553803544" priority="0" numLanes="1" speed="40.00" shape="127.335904,36.330609 127.335906,36.330136" dong_cd="2504051" edge_len="52.00"/>
    <edge id="-553804247" from="553803552" to="553803551" priority="0" numLanes="1" speed="40.00" shape="127.335904,36.330609 127.335893,36.331293" dong_cd="2504051" edge_len="76.00"/>
    <edge id="-553804248" from="553803553" to="553803551" priority="0" numLanes="1" speed="40.00" shape="127.335906,36.332078 127.335893,36.331293" dong_cd="2504051" edge_len="87.00"/>
    <edge id="-553804253" from="553803555" to="553803544" priority="0" numLanes="1" speed="40.00" shape="127.335121,36.330134 127.335906,36.330136" dong_cd="2504051" edge_len="70.00"/>
    <edge id="-553804254" from="553803555" to="553803549" priority="0" numLanes="1" speed="40.00" shape="127.335121,36.330134 127.333959,36.330131" dong_cd="2504051" edge_len="104.00"/>
    <edge id="-553804262" from="cluster_553803557_553803560_553803561_553803562_553807420_553807421" to="553803543" priority="0" numLanes="2" speed="40.00" shape="127.332649,36.330154 127.331819,36.330162" dong_cd="2504051" edge_len="75.00"/>
    <edge id="-553804271" from="cluster_553803565_553803567_553803575_553803576_553803577_553803578_553803677_553803678" to="553803035" priority="0" numLanes="2" speed="30.00" shape="127.338164,36.332341 127.338155,36.333507" dong_cd="2504065" edge_len="129.00"/>
    <edge id="-553804272" from="cluster_553803565_553803567_553803575_553803576_553803577_553803578_553803677_553803678" to="553803102" priority="0" numLanes="2" speed="50.00" shape="127.338160,36.332088 127.338152,36.330148" dong_cd="2503070" edge_len="215.00"/>
    <edge id="-553804297" from="553803586" to="553803568" priority="0" numLanes="3" speed="60.00" shape="127.336415,36.332227 127.333243,36.332254 127.333033,36.332255 127.332860,36.332257 127.332848,36.332257 127.332678,36.332259 127.332531,36.332260 127.332431,36.332259 127.329103,36.332247" dong_cd="2504051" edge_len="657.00"/>
    <edge id="-553804298" from="553803587" to="553803540" priority="0" numLanes="2" speed="60.00" shape="127.337071,36.332348 127.335881,36.332356" dong_cd="2504065" spreadType="center" edge_len="107.00"/>
    <edge id="-553804299" from="553803587" to="553803586" priority="0" numLanes="3" speed="60.00" shape="127.337071,36.332348 127.336415,36.332227" dong_cd="2504065" spreadType="center" edge_len="60.00"/>
    <edge id="-553804320" from="cluster_553803240_553803241_553803569_553803570_553803571_553803572_553803573_553803574_553803593_553803596_553805156_553805157_553807409_553807411_553807413_553807415_553807417_553807419" to="cluster_553803557_553803560_553803561_553803562_553807420_553807421" priority="0" numLanes="4" speed="60.00" shape="127.332672,36.331875 127.332652,36.330358" dong_cd="2504051" spreadType="center" edge_len="168.00"/>
    <edge id="-553804323" from="553803583" to="553803217" priority="0" numLanes="2" speed="60.00" shape="127.343978,36.332126 127.344643,36.332122" dong_cd="2503070" spreadType="center" edge_len="60.00"/>
    <edge id="-553804328" from="cluster_553803564_553803566_553803579_553803580_553803581_553803582_553803597_553803598_553803599_553803600_553803601_553803602" to="cluster_553803565_553803567_553803575_553803576_553803577_553803578_553803677_553803678" priority="0" numLanes="5" speed="60.00" shape="127.340774,36.332333 127.338345,36.332340" dong_cd="2504065" spreadType="center" edge_len="218.00"/>
    <edge id="-553804333" from="cluster_553803564_553803566_553803579_553803580_553803581_553803582_553803597_553803598_553803599_553803600_553803601_553803602" to="553803220" priority="0" numLanes="1" speed="40.00" shape="127.340908,36.331966 127.340891,36.331100" dong_cd="2503070" edge_len="96.00"/>
    <edge id="-553804336" from="cluster_553803564_553803566_553803579_553803580_553803581_553803582_553803597_553803598_553803599_553803600_553803601_553803602" to="553803583" priority="0" numLanes="5" speed="60.00" shape="127.341106,36.332103 127.343978,36.332126" dong_cd="2503070" spreadType="center" edge_len="258.00"/>
    <edge id="-553804340" from="cluster_553803564_553803566_553803579_553803580_553803581_553803582_553803597_553803598_553803599_553803600_553803601_553803602" to="553803036" priority="0" numLanes="1" speed="40.00" shape="127.340920,36.332494 127.340939,36.333504" dong_cd="2504065" edge_len="112.00"/>
    <edge id="-553804377" from="553803626" to="553803584" priority="0" numLanes="3" speed="60.00" shape="127.351780,36.332145 127.350756,36.332161 127.348523,36.332193 127.348176,36.332198 127.348066,36.332200 127.348050,36.332200 127.347940,36.332202 127.347586,36.332207 127.344280,36.332257" dong_cd="2503070" edge_len="673.00"/>
    <edge id="-553804378" from="cluster_553803225_553803226_553803398_553803621_553803622_553803623_553803624_553803625_553804565_553804566_553804567_553804568_553804569_553804570" to="553803313" priority="0" numLanes="2" speed="60.00" shape="127.347588,36.332337 127.344674,36.332357" dong_cd="2504065" spreadType="center" edge_len="262.00"/>
    <edge id="-553804440" from="553803666" to="553803312" priority="0" numLanes="1" speed="40.00" shape="127.344669,36.333634 127.344668,36.333727 127.344653,36.333806 127.344634,36.333888 127.344596,36.333976 127.344549,36.334042 127.344500,36.334086 127.344399,36.334158 127.344279,36.334239 127.344162,36.334301 127.343958,36.334372 127.343784,36.334412 127.343504,36.334470 127.343309,36.334496 127.342496,36.334533 127.340900,36.334551" dong_cd="2504065" edge_len="389.00"/>
    <edge id="-553804441" from="553803666" to="553803313" priority="0" numLanes="1" speed="40.00" shape="127.344669,36.333634 127.344674,36.332357" dong_cd="2504065" edge_len="142.00"/>
    <edge id="-553804461" from="cluster_553803565_553803567_553803575_553803576_553803577_553803578_553803677_553803678" to="553803587" priority="0" numLanes="5" speed="60.00" shape="127.338025,36.332341 127.337071,36.332348" dong_cd="2504065" spreadType="center" edge_len="86.00"/>
    <edge id="-553805724" from="553804561" to="553803626" priority="0" numLanes="3" speed="60.00" shape="127.352488,36.332247 127.351861,36.332157 127.351771,36.332190" dong_cd="2503070" spreadType="center" edge_len="66.00"/>
    <edge id="-553805727" from="553804563" to="553804561" priority="0" numLanes="4" speed="60.00" shape="127.358217,36.332951 127.357974,36.332828 127.357280,36.332513 127.356870,36.332372 127.356559,36.332298 127.356279,36.332257 127.355999,36.332237 127.353776,36.332244 127.352488,36.332247" dong_cd="2503066" spreadType="center" edge_len="532.00"/>
    <edge id="-553805734" from="cluster_553803225_553803226_553803398_553803621_553803622_553803623_553803624_553803625_553804565_553804566_553804567_553804568_553804569_553804570" to="553800728" priority="0" numLanes="2" speed="50.00" shape="127.348184,36.332503 127.348191,36.332573 127.348212,36.332630 127.349470,36.335745 127.349526,36.335917 127.349588,36.336269" dong_cd="2504065" spreadType="center" edge_len="437.00"/>
    <edge id="-553805935" from="553804667" to="553803568" priority="0" numLanes="3" speed="60.00" shape="127.328740,36.332123 127.328833,36.332141 127.329052,36.332236 127.329103,36.332247" dong_cd="2504051" spreadType="center" edge_len="36.00"/>
    <edge id="-553805936" from="553804667" to="553800673" priority="0" numLanes="2" speed="70.00" shape="127.328740,36.332123 127.330269,36.332130" dong_cd="2504051" spreadType="center" edge_len="137.00"/>
    <edge id="-553805944" from="553803102" to="553801666" priority="0" numLanes="2" speed="50.00" shape="127.338152,36.330148 127.338132,36.329148" dong_cd="2503070" edge_len="111.00"/>
    <edge id="-553805956" from="553804681" to="cluster_553803225_553803226_553803398_553803621_553803622_553803623_553803624_553803625_553804565_553804566_553804567_553804568_553804569_553804570" priority="0" numLanes="2" speed="50.00" shape="127.348391,36.333561 127.348014,36.332631 127.347980,36.332502 127.347952,36.332374 127.347947,36.332335" dong_cd="2504065" spreadType="center" edge_len="142.00"/>
    <edge id="-553805959" from="553804683" to="553804562" priority="0" numLanes="2" speed="60.00" shape="127.352359,36.332052 127.352507,36.332051" dong_cd="2503070" spreadType="center" edge_len="13.00"/>
    <edge id="-553805962" from="553804685" to="cluster_553803225_553803226_553803398_553803621_553803622_553803623_553803624_553803625_553804565_553804566_553804567_553804568_553804569_553804570" priority="0" numLanes="2" speed="60.00" shape="127.351917,36.332259 127.348523,36.332327" dong_cd="2504065" spreadType="center" edge_len="305.00"/>
    <edge id="-553805997" from="553803239" to="553803006" priority="0" numLanes="2" speed="60.00" shape="127.333837,36.335698 127.333988,36.336133 127.334062,36.336269" dong_cd="2504065" spreadType="center" edge_len="67.00"/>
    <edge id="-553805998" from="553804703" to="553803238" priority="0" numLanes="2" speed="60.00" shape="127.333917,36.336269 127.333850,36.336167 127.333529,36.335765" dong_cd="2504065" spreadType="center" edge_len="66.00"/>
    <edge id="-553806132" from="553804771" to="553803213" priority="0" numLanes="1" speed="30.00" shape="127.342644,36.330134 127.343453,36.330129" dong_cd="2503070" edge_len="73.00"/>
    <edge id="-553806133" from="553804771" to="553803334" priority="0" numLanes="1" speed="30.00" shape="127.342644,36.330134 127.341660,36.330137" dong_cd="2503070" edge_len="88.00"/>
    <edge id="-553806941" from="553805147" to="553803212" priority="0" numLanes="1" speed="30.00" shape="127.344358,36.330416 127.344488,36.330549 127.344589,36.330726 127.344631,36.330865 127.344645,36.331024 127.344649,36.331236" dong_cd="2503070" edge_len="98.00"/>
    <edge id="-553806942" from="553805147" to="553803213" priority="0" numLanes="1" speed="30.00" shape="127.344358,36.330416 127.344216,36.330317 127.343947,36.330189 127.343712,36.330146 127.343453,36.330129" dong_cd="2503070" edge_len="90.00"/>
    <edge id="-553810610" from="553807268" to="cluster_553803342_553803343" priority="0" numLanes="2" speed="50.00" shape="127.347924,36.330126 127.347912,36.328593" dong_cd="2503070" spreadType="center" edge_len="170.00"/>
    <edge id="-553810840" from="cluster_553803240_553803241_553803569_553803570_553803571_553803572_553803573_553803574_553803593_553803596_553805156_553805157_553807409_553807411_553807413_553807415_553807417_553807419" to="553804662" priority="0" numLanes="2" speed="60.00" shape="127.332313,36.332376 127.331810,36.332373" dong_cd="2504065" spreadType="center" edge_len="45.00"/>
    <edge id="-553810849" from="cluster_553803240_553803241_553803569_553803570_553803571_553803572_553803573_553803574_553803593_553803596_553805156_553805157_553807409_553807411_553807413_553807415_553807417_553807419" to="553803329" priority="0" numLanes="4" speed="60.00" shape="127.333026,36.332612 127.333018,36.332790 127.333015,36.332982 127.333035,36.333282 127.333053,36.333443" dong_cd="2504065" spreadType="center" edge_len="92.00"/>
    <edge id="-553810854" from="cluster_553803240_553803241_553803569_553803570_553803571_553803572_553803573_553803574_553803593_553803596_553805156_553805157_553807409_553807411_553807413_553807415_553807417_553807419" to="553803553" priority="0" numLanes="2" speed="60.00" shape="127.333443,36.332113 127.335906,36.332078" dong_cd="2504051" spreadType="center" edge_len="221.00"/>
    <edge id="-553810862" from="cluster_553803557_553803560_553803561_553803562_553807420_553807421" to="553803549" priority="0" numLanes="1" speed="40.00" shape="127.333279,36.330142 127.333959,36.330131" dong_cd="2504051" edge_len="61.00"/>
    <edge id="-553810865" from="cluster_553803557_553803560_553803561_553803562_553807420_553807421" to="cluster_553803240_553803241_553803569_553803570_553803571_553803572_553803573_553803574_553803593_553803596_553805156_553805157_553807409_553807411_553807413_553807415_553807417_553807419" priority="0" numLanes="4" speed="60.00" shape="127.333037,36.330426 127.333036,36.331850" dong_cd="2504051" spreadType="center" edge_len="158.00"/>
    <edge id="-553810870" from="553807423" to="cluster_553803557_553803560_553803561_553803562_553807420_553807421" priority="0" numLanes="4" speed="60.00" shape="127.333027,36.328889 127.333035,36.329998" dong_cd="2504051" spreadType="center" edge_len="123.00"/>
    <edge id="-563100009" from="563101518" to="563100006" priority="0" numLanes="4" speed="50.00" shape="127.328163,36.364191 127.328529,36.364173" dong_cd="2504054" spreadType="center" edge_len="33.00"/>
    <edge id="-563100014" from="563100014" to="563100012" priority="0" numLanes="1" speed="30.00" shape="127.342261,36.359693 127.341603,36.359292" dong_cd="2504054" edge_len="74.00"/>
    <edge id="-563100015" from="563101667" to="563100012" priority="0" numLanes="1" speed="30.00" shape="127.340584,36.359253 127.340656,36.359219 127.340937,36.359159 127.341078,36.359155 127.341280,36.359177 127.341466,36.359231 127.341603,36.359292" dong_cd="2504054" edge_len="96.00"/>
    <edge id="-563100016" from="563100425" to="563100014" priority="0" numLanes="2" speed="40.00" shape="127.341607,36.359844 127.342261,36.359693" dong_cd="2504054" edge_len="61.00"/>
    <edge id="-563100017" from="563100431" to="563100014" priority="0" numLanes="1" speed="10.00" shape="127.342913,36.360006 127.342261,36.359693" dong_cd="2504054" edge_len="68.00"/>
    <edge id="-563100052" from="563100817" to="563100035" priority="0" numLanes="1" speed="30.00" shape="127.333652,36.350050 127.333506,36.348945" dong_cd="2504064" edge_len="123.00"/>
    <edge id="-563100056" from="563100039" to="563100037" priority="0" numLanes="1" speed="40.00" shape="127.352744,36.358456 127.353041,36.358891" dong_cd="2504064" edge_len="55.00"/>
    <edge id="-563100058" from="563101216" to="563100037" priority="0" numLanes="1" speed="40.00" shape="127.353505,36.359602 127.353041,36.358891" dong_cd="2504064" edge_len="89.00"/>
    <edge id="-563100060" from="563100043" to="563100038" priority="0" numLanes="1" speed="30.00" shape="127.351848,36.358160 127.351063,36.358274" dong_cd="2504064" edge_len="72.00"/>
    <edge id="-563100061" from="563100045" to="563100038" priority="0" numLanes="1" speed="30.00" shape="127.350557,36.358348 127.351063,36.358274" dong_cd="2504064" edge_len="46.00"/>
    <edge id="-563100063" from="563101675" to="563100039" priority="0" numLanes="1" speed="40.00" shape="127.352479,36.358045 127.352744,36.358456" dong_cd="2504064" edge_len="51.00"/>
    <edge id="-563100064" from="563100050" to="563100041" priority="0" numLanes="1" speed="40.00" shape="127.350415,36.357250 127.349645,36.357369" dong_cd="2504064" edge_len="70.00"/>
    <edge id="-563100065" from="563101111" to="563100041" priority="0" numLanes="2" speed="40.00" shape="127.349421,36.356375 127.349645,36.357369" dong_cd="2504064" edge_len="112.00"/>
    <edge id="-563100066" from="563101676" to="563100041" priority="0" numLanes="1" speed="40.00" shape="127.349885,36.358425 127.349645,36.357369" dong_cd="2504064" edge_len="119.00"/>
    <edge id="-563100068" from="cluster_563101674_563102857" to="563100042" priority="0" numLanes="3" speed="50.00" shape="127.353779,36.357156 127.352721,36.356428" dong_cd="2504064" edge_len="125.00"/>
    <edge id="-563100069" from="563100048" to="563100043" priority="0" numLanes="1" speed="40.00" shape="127.351753,36.357753 127.351848,36.358160" dong_cd="2504064" edge_len="46.00"/>
    <edge id="-563100070" from="563101675" to="563100043" priority="0" numLanes="1" speed="30.00" shape="127.352479,36.358045 127.352290,36.358092 127.351848,36.358160" dong_cd="2504064" edge_len="58.00"/>
    <edge id="-563100074" from="563101676" to="563100045" priority="0" numLanes="1" speed="30.00" shape="127.349885,36.358425 127.350557,36.358348" dong_cd="2504064" edge_len="61.00"/>
    <edge id="-563100076" from="563101111" to="563100046" priority="0" numLanes="2" speed="40.00" shape="127.349421,36.356375 127.350194,36.356260" dong_cd="2504064" edge_len="71.00"/>
    <edge id="-563100077" from="563101672" to="563100046" priority="0" numLanes="2" speed="40.00" shape="127.350805,36.356161 127.350194,36.356260" dong_cd="2504064" edge_len="56.00"/>
    <edge id="-563100078" from="563100048" to="563100047" priority="0" numLanes="1" speed="40.00" shape="127.351753,36.357753 127.351606,36.357086" dong_cd="2504064" edge_len="75.00"/>
    <edge id="-563100079" from="563100050" to="563100047" priority="0" numLanes="1" speed="40.00" shape="127.350415,36.357250 127.351606,36.357086" dong_cd="2504064" edge_len="108.00"/>
    <edge id="-563100081" from="563101676" to="563100049" priority="0" numLanes="2" speed="30.00" shape="127.349885,36.358425 127.349245,36.358523" dong_cd="2504064" edge_len="58.00"/>
    <edge id="-563100083" from="563100052" to="563100051" priority="0" numLanes="1" speed="30.00" shape="127.346968,36.357795 127.347110,36.358402" dong_cd="2504064" edge_len="69.00"/>
    <edge id="-563100085" from="563101677" to="563100051" priority="0" numLanes="2" speed="30.00" shape="127.347212,36.358835 127.347110,36.358402" dong_cd="2504064" edge_len="49.00"/>
    <edge id="-563100086" from="563100058" to="563100052" priority="0" numLanes="1" speed="30.00" shape="127.346826,36.357194 127.346968,36.357795" dong_cd="2504064" edge_len="68.00"/>
    <edge id="-563100090" from="563101111" to="563100053" priority="0" numLanes="2" speed="40.00" shape="127.349421,36.356375 127.348761,36.356466" dong_cd="2504064" edge_len="60.00"/>
    <edge id="-563100091" from="563101673" to="563100053" priority="0" numLanes="2" speed="40.00" shape="127.346722,36.356753 127.348761,36.356466" dong_cd="2504064" edge_len="186.00"/>
    <edge id="-563100093" from="563101137" to="563100054" priority="0" numLanes="2" speed="40.00" shape="127.345871,36.356872 127.345278,36.356967" dong_cd="2504064" edge_len="54.00"/>
    <edge id="-563100094" from="563101140" to="563100054" priority="0" numLanes="2" speed="40.00" shape="127.344902,36.357024 127.345278,36.356967" dong_cd="2504064" edge_len="34.00"/>
    <edge id="-563100095" from="563100056" to="563100055" priority="0" numLanes="2" speed="30.00" shape="127.344993,36.359152 127.345748,36.359041" dong_cd="2504064" edge_len="69.00"/>
    <edge id="-563100096" from="563101677" to="563100055" priority="0" numLanes="1" speed="30.00" shape="127.347212,36.358835 127.345748,36.359041" dong_cd="2504064" edge_len="133.00"/>
    <edge id="-563100098" from="563101140" to="563100057" priority="0" numLanes="2" speed="40.00" shape="127.344902,36.357024 127.344528,36.357086" dong_cd="2504064" edge_len="34.00"/>
    <edge id="-563100099" from="563101144" to="563100057" priority="0" numLanes="2" speed="40.00" shape="127.343990,36.357165 127.344528,36.357086" dong_cd="2504064" edge_len="49.00"/>
    <edge id="-563100102" from="563101673" to="563100058" priority="0" numLanes="2" speed="30.00" shape="127.346722,36.356753 127.346826,36.357194" dong_cd="2504064" edge_len="50.00"/>
    <edge id="-563100112" from="563100824" to="cluster_563100070_563100825" priority="0" numLanes="2" speed="40.00" shape="127.338942,36.350289 127.337901,36.350428" dong_cd="2504064" edge_len="95.00"/>
    <edge id="-563100114" from="563100401" to="cluster_563100071_563102845" priority="0" numLanes="2" speed="30.00" shape="127.338458,36.361218 127.339638,36.360700" dong_cd="2504054" edge_len="120.00"/>
    <edge id="-563100115" from="563100406" to="cluster_563100071_563102845" priority="0" numLanes="1" speed="30.00" shape="127.340251,36.361808 127.340198,36.361601 127.340122,36.361403 127.339638,36.360700" dong_cd="2504054" edge_len="136.00"/>
    <edge id="-563100116" from="563100414" to="cluster_563100071_563102845" priority="0" numLanes="1" speed="40.00" shape="127.339255,36.359854 127.339277,36.359971 127.339303,36.360071 127.339370,36.360234 127.339485,36.360455 127.339638,36.360700" dong_cd="2504054" edge_len="101.00"/>
    <edge id="-563100117" from="563100402" to="563100072" priority="0" numLanes="1" speed="30.00" shape="127.340219,36.362727 127.340164,36.363343 127.340180,36.363488" dong_cd="2504054" edge_len="85.00"/>
    <edge id="-563100119" from="563100384" to="563100073" priority="0" numLanes="1" speed="30.00" shape="127.334940,36.361915 127.334397,36.362841" dong_cd="2504054" edge_len="114.00"/>
    <edge id="-563100120" from="563100413" to="563100074" priority="0" numLanes="1" speed="40.00" shape="127.339262,36.359528 127.339291,36.359395 127.339498,36.358758" dong_cd="2504054" edge_len="88.00"/>
    <edge id="-563100121" from="563100418" to="563100074" priority="0" numLanes="1" speed="40.00" shape="127.339828,36.357800 127.339498,36.358758" dong_cd="2504054" edge_len="110.00"/>
    <edge id="-563100122" from="563100419" to="563100074" priority="0" numLanes="1" speed="30.00" shape="127.339153,36.358712 127.339498,36.358758" dong_cd="2504054" edge_len="31.00"/>
    <edge id="-563100123" from="563100418" to="563100075" priority="0" numLanes="1" speed="40.00" shape="127.339828,36.357800 127.339929,36.357511" dong_cd="2504054" edge_len="33.00"/>
    <edge id="-563100345" from="563100255" to="563100254" priority="0" numLanes="3" speed="60.00" shape="127.324774,36.346727 127.325442,36.347592" dong_cd="2504064" edge_len="113.00"/>
    <edge id="-563100347" from="563100257" to="563100255" priority="0" numLanes="1" speed="40.00" shape="127.325040,36.346558 127.324774,36.346727" dong_cd="2504064" edge_len="30.00"/>
    <edge id="-563100369" from="563101215" to="cluster_563100270_563100271_563101219_563101222_563101651_563101652_563101653_563102491" priority="0" numLanes="2" speed="60.00" shape="127.327177,36.359430 127.327027,36.359443 127.326416,36.359459" dong_cd="2504054" edge_len="68.00"/>