<?xml version="1.0" encoding="UTF-8" standalone="yes"?>
<connections xmlns:xsi="http://www.w3.org/2001/XMLSchema-instance" xsi:noNamespaceSchemaLocation="http://sumo.dlr.de/xsd/connections_file.xsd">
    <connection from="553800929" to="553804241" fromLane="0" toLane="0"/>
    <connection from="553800929" to="553804260" fromLane="0" toLane="0"/>
    <connection from="553800929" to="553810515" fromLane="0" toLane="0"/>
    <connection from="553801079" to="-553801079" fromLane="0" toLane="0"/>
    <connection from="553801080" to="553801092" fromLane="0" toLane="0"/>
    <connection from="553801080" to="553801096" fromLane="0" toLane="0"/>
    <connection from="553801096" to="-553801096" fromLane="0" toLane="0"/>
    <connection from="553801661" to="553805944" fromLane="0" toLane="0"/>
    <connection from="553801661" to="553805944" fromLane="1" toLane="1"/>
    <connection from="553801661" to="553805945" fromLane="1" toLane="0"/>
    <connection from="553801661" to="553805946" fromLane="0" toLane="0"/>
    <connection from="553802903" to="553802905" fromLane="0" toLane="0"/>
    <connection from="553802903" to="-553802904" fromLane="0" toLane="0"/>
    <connection from="553802904" to="553802905" fromLane="0" toLane="0"/>
    <connection from="553802904" to="-553802903" fromLane="0" toLane="0"/>
    <connection from="553802943" to="553802945" fromLane="0" toLane="0"/>
    <connection from="553802943" to="-553802944" fromLane="0" toLane="0"/>
    <connection from="553802944" to="553802945" fromLane="0" toLane="0"/>
    <connection from="553802944" to="-553802943" fromLane="0" toLane="0"/>
    <connection from="553802945" to="-553802946" fromLane="0" toLane="0"/>
    <connection from="553802945" to="-553802956" fromLane="0" toLane="0"/>
    <connection from="553802946" to="-553802945" fromLane="0" toLane="0"/>
    <connection from="553802946" to="-553802956" fromLane="0" toLane="0"/>
    <connection from="553802956" to="-553802945" fromLane="0" toLane="0"/>
    <connection from="553802956" to="-553802946" fromLane="0" toLane="0"/>
    <connection from="553803229" to="553804237" fromLane="0" toLane="0"/>
    <connection from="553803229" to="553810589" fromLane="0" toLane="0"/>
    <connection from="553803445" to="553803446" fromLane="0" toLane="0"/>
    <connection from="553803445" to="553807345" fromLane="0" toLane="0"/>
    <connection from="553803446" to="553804193" fromLane="0" toLane="0"/>
    <connection from="553803446" to="553807351" fromLane="0" toLane="0"/>
    <connection from="553803481" to="553803484" fromLane="0" toLane="0"/>
    <connection from="553803481" to="-553803482" fromLane="0" toLane="0"/>
    <connection from="553803482" to="553803484" fromLane="0" toLane="0"/>
    <connection from="553803482" to="-553803481" fromLane="0" toLane="0"/>
    <connection from="553803483" to="553803488" fromLane="0" toLane="0"/>
    <connection from="553803483" to="-553803484" fromLane="0" toLane="0"/>
    <connection from="553803484" to="553803488" fromLane="0" toLane="0"/>
    <connection from="553803484" to="-553803483" fromLane="0" toLane="0"/>
    <connection from="553803485" to="553803487" fromLane="0" toLane="0"/>
    <connection from="553803485" to="-553803486" fromLane="0" toLane="0"/>
    <connection from="553803486" to="553803487" fromLane="0" toLane="0"/>
    <connection from="553803486" to="-553803485" fromLane="0" toLane="0"/>
    <connection from="553803487" to="553803489" fromLane="0" toLane="0"/>
    <connection from="553803487" to="553803490" fromLane="0" toLane="0"/>
    <connection from="553803488" to="553803491" fromLane="0" toLane="0"/>
    <connection from="553803488" to="-553803489" fromLane="0" toLane="0"/>
    <connection from="553803489" to="553803491" fromLane="0" toLane="0"/>
    <connection from="553803489" to="-553803488" fromLane="0" toLane="0"/>
    <connection from="553803490" to="-553803491" fromLane="0" toLane="0"/>
    <connection from="553803491" to="-553803490" fromLane="0" toLane="0"/>
    <connection from="553803566" to="553803567" fromLane="0" toLane="0"/>
    <connection from="553803566" to="553803887" fromLane="0" toLane="0"/>
    <connection from="553803567" to="-553803567" fromLane="0" toLane="0"/>
    <connection from="553803569" to="553806139" fromLane="0" toLane="0"/>
    <connection from="553803569" to="553806145" fromLane="0" toLane="0"/>
    <connection from="553803736" to="553803740" fromLane="0" toLane="0"/>
    <connection from="553803736" to="553806941" fromLane="0" toLane="0"/>
    <connection from="553803737" to="-553803737" fromLane="0" toLane="0"/>
    <connection from="553803738" to="553803745" fromLane="0" toLane="0"/>
    <connection from="553803738" to="553803748" fromLane="0" toLane="0"/>
    <connection from="553803740" to="553804376" fromLane="0" toLane="0"/>
    <connection from="553803742" to="553803744" fromLane="0" toLane="0"/>
    <connection from="553803742" to="553803914" fromLane="0" toLane="0"/>
    <connection from="553803742" to="553806373" fromLane="0" toLane="0"/>
    <connection from="553803743" to="553803915" fromLane="0" toLane="0"/>
    <connection from="553803743" to="-553803744" fromLane="0" toLane="0"/>
    <connection from="553803744" to="553803915" fromLane="0" toLane="0"/>
    <connection from="553803744" to="-553803743" fromLane="0" toLane="0"/>
    <connection from="553803745" to="553803917" fromLane="0" toLane="0"/>
    <connection from="553803745" to="-553803746" fromLane="0" toLane="0"/>
    <connection from="553803746" to="553803917" fromLane="0" toLane="0"/>
    <connection from="553803746" to="-553803745" fromLane="0" toLane="0"/>
    <connection from="553803747" to="-553803748" fromLane="0" toLane="0"/>
    <connection from="553803748" to="-553803747" fromLane="0" toLane="0"/>
    <connection from="553803772" to="553803929" fromLane="0" toLane="0"/>
    <connection from="553803772" to="553803929" fromLane="1" toLane="1"/>
    <connection from="553803775" to="553810834" fromLane="0" toLane="0"/>
    <connection from="553803775" to="553810834" fromLane="1" toLane="1"/>
    <connection from="553803775" to="553810834" fromLane="2" toLane="2"/>
    <connection from="553803775" to="553810834" fromLane="3" toLane="3"/>
    <connection from="553803886" to="553803902" fromLane="0" toLane="0"/>
    <connection from="553803886" to="553804440" fromLane="0" toLane="0"/>
    <connection from="553803889" to="553803893" fromLane="0" toLane="0"/>
    <connection from="553803889" to="553803896" fromLane="0" toLane="0"/>
    <connection from="553803889" to="553803904" fromLane="0" toLane="0"/>
    <connection from="553803890" to="553803891" fromLane="0" toLane="0"/>
    <connection from="553803890" to="553803897" fromLane="0" toLane="0"/>
    <connection from="553803891" to="553803894" fromLane="0" toLane="0"/>
    <connection from="553803891" to="553803901" fromLane="0" toLane="0"/>
    <connection from="553803891" to="553803913" fromLane="0" toLane="0"/>
    <connection from="553803892" to="553803895" fromLane="0" toLane="0"/>
    <connection from="553803892" to="553803911" fromLane="0" toLane="0"/>
    <connection from="553803892" to="-553803893" fromLane="0" toLane="0"/>
    <connection from="553803893" to="553803895" fromLane="0" toLane="0"/>
    <connection from="553803893" to="553803911" fromLane="0" toLane="0"/>
    <connection from="553803893" to="-553803892" fromLane="0" toLane="0"/>
    <connection from="553803894" to="553803898" fromLane="0" toLane="0"/>
    <connection from="553803894" to="553803912" fromLane="0" toLane="0"/>
    <connection from="553803894" to="-553803895" fromLane="0" toLane="0"/>
    <connection from="553803895" to="553803898" fromLane="0" toLane="0"/>
    <connection from="553803895" to="553803912" fromLane="0" toLane="0"/>
    <connection from="553803895" to="-553803894" fromLane="0" toLane="0"/>
    <connection from="553803896" to="-553803897" fromLane="0" toLane="0"/>
    <connection from="553803896" to="-553803898" fromLane="0" toLane="0"/>
    <connection from="553803897" to="-553803896" fromLane="0" toLane="0"/>
    <connection from="553803897" to="-553803898" fromLane="0" toLane="0"/>
    <connection from="553803898" to="-553803896" fromLane="0" toLane="0"/>
    <connection from="553803898" to="-553803897" fromLane="0" toLane="0"/>
    <connection from="553803902" to="553803903" fromLane="0" toLane="0"/>
    <connection from="553803902" to="553803905" fromLane="0" toLane="0"/>
    <connection from="553803903" to="553803906" fromLane="0" toLane="0"/>
    <connection from="553803903" to="553803910" fromLane="0" toLane="0"/>
    <connection from="553803903" to="-553803911" fromLane="0" toLane="0"/>
    <connection from="553803904" to="-553803905" fromLane="0" toLane="0"/>
    <connection from="553803904" to="-553803906" fromLane="0" toLane="0"/>
    <connection from="553803905" to="-553803904" fromLane="0" toLane="0"/>
    <connection from="553803905" to="-553803906" fromLane="0" toLane="0"/>
    <connection from="553803906" to="-553803904" fromLane="0" toLane="0"/>
    <connection from="553803906" to="-553803905" fromLane="0" toLane="0"/>
    <connection from="553803910" to="563109591" fromLane="0" toLane="0"/>
    <connection from="553803911" to="553803906" fromLane="0" toLane="0"/>
    <connection from="553803911" to="553803910" fromLane="0" toLane="0"/>
    <connection from="553803911" to="-553803903" fromLane="0" toLane="0"/>
    <connection from="553803912" to="563104757" fromLane="0" toLane="0"/>
    <connection from="553803913" to="563104754" fromLane="0" toLane="0"/>
    <connection from="553803914" to="-553803915" fromLane="0" toLane="0"/>
    <connection from="553803915" to="-553803914" fromLane="0" toLane="0"/>
    <connection from="553803916" to="553806133" fromLane="0" toLane="0"/>
    <connection from="553803916" to="-553803917" fromLane="0" toLane="0"/>
    <connection from="553803916" to="-553803918" fromLane="0" toLane="0"/>
    <connection from="553803917" to="553806133" fromLane="0" toLane="0"/>
    <connection from="553803917" to="-553803916" fromLane="0" toLane="0"/>
    <connection from="553803917" to="-553803918" fromLane="0" toLane="0"/>
    <connection from="553803918" to="553806133" fromLane="0" toLane="0"/>
    <connection from="553803918" to="-553803916" fromLane="0" toLane="0"/>
    <connection from="553803918" to="-553803917" fromLane="0" toLane="0"/>
    <connection from="553803971" to="553803989" fromLane="0" toLane="0"/>
    <connection from="553803971" to="-553803972" fromLane="0" toLane="0"/>
    <connection from="553803971" to="-553803973" fromLane="0" toLane="0"/>
    <connection from="553803972" to="553803989" fromLane="0" toLane="0"/>
    <connection from="553803972" to="-553803971" fromLane="0" toLane="0"/>
    <connection from="553803972" to="-553803973" fromLane="0" toLane="0"/>
    <connection from="553803973" to="553803989" fromLane="0" toLane="0"/>
    <connection from="553803973" to="-553803971" fromLane="0" toLane="0"/>
    <connection from="553803973" to="-553803972" fromLane="0" toLane="0"/>
    <connection from="553803974" to="553803976" fromLane="0" toLane="0"/>
    <connection from="553803974" to="553803980" fromLane="0" toLane="0"/>
    <connection from="553803975" to="553803978" fromLane="0" toLane="0"/>
    <connection from="553803975" to="-553803976" fromLane="0" toLane="0"/>
    <connection from="553803976" to="553803978" fromLane="0" toLane="0"/>
    <connection from="553803976" to="-553803975" fromLane="0" toLane="0"/>
    <connection from="553803977" to="553803981" fromLane="0" toLane="0"/>
    <connection from="553803977" to="-553803978" fromLane="0" toLane="0"/>
    <connection from="553803978" to="553803981" fromLane="0" toLane="0"/>
    <connection from="553803978" to="-553803977" fromLane="0" toLane="0"/>
    <connection from="553803979" to="-553803980" fromLane="0" toLane="0"/>
    <connection from="553803979" to="-553803981" fromLane="0" toLane="0"/>
    <connection from="553803980" to="-553803979" fromLane="0" toLane="0"/>
    <connection from="553803980" to="-553803981" fromLane="0" toLane="0"/>
    <connection from="553803981" to="-553803979" fromLane="0" toLane="0"/>
    <connection from="553803981" to="-553803980" fromLane="0" toLane="0"/>
    <connection from="553803982" to="553803984" fromLane="0" toLane="0"/>
    <connection from="553803982" to="553803987" fromLane="0" toLane="0"/>
    <connection from="553803983" to="553803986" fromLane="0" toLane="0"/>
    <connection from="553803983" to="-553803984" fromLane="0" toLane="0"/>
    <connection from="553803984" to="553803986" fromLane="0" toLane="0"/>
    <connection from="553803984" to="-553803983" fromLane="0" toLane="0"/>
    <connection from="553803985" to="-553803986" fromLane="0" toLane="0"/>
    <connection from="553803985" to="-553803987" fromLane="0" toLane="0"/>
    <connection from="553803986" to="-553803985" fromLane="0" toLane="0"/>
    <connection from="553803986" to="-553803987" fromLane="0" toLane="0"/>
    <connection from="553803987" to="-553803985" fromLane="0" toLane="0"/>
    <connection from="553803987" to="-553803986" fromLane="0" toLane="0"/>
    <connection from="553803988" to="553803997" fromLane="0" toLane="0"/>
    <connection from="553803988" to="553804000" fromLane="0" toLane="0"/>
    <connection from="553803989" to="553803992" fromLane="0" toLane="0"/>
    <connection from="553803989" to="553803998" fromLane="0" toLane="0"/>
    <connection from="553803989" to="-553803990" fromLane="0" toLane="0"/>
    <connection from="553803990" to="553803992" fromLane="0" toLane="0"/>
    <connection from="553803990" to="553803998" fromLane="0" toLane="0"/>
    <connection from="553803990" to="-553803989" fromLane="0" toLane="0"/>
    <connection from="553803991" to="553803993" fromLane="0" toLane="0"/>
    <connection from="553803991" to="553803995" fromLane="0" toLane="0"/>
    <connection from="553803992" to="553803996" fromLane="0" toLane="0"/>
    <connection from="553803992" to="-553803993" fromLane="0" toLane="0"/>
    <connection from="553803993" to="553803996" fromLane="0" toLane="0"/>
    <connection from="553803993" to="-553803992" fromLane="0" toLane="0"/>
    <connection from="553803994" to="-553803995" fromLane="0" toLane="0"/>
    <connection from="553803994" to="-553803996" fromLane="0" toLane="0"/>
    <connection from="553803995" to="-553803994" fromLane="0" toLane="0"/>
    <connection from="553803995" to="-553803996" fromLane="0" toLane="0"/>
    <connection from="553803996" to="-553803994" fromLane="0" toLane="0"/>
    <connection from="553803996" to="-553803995" fromLane="0" toLane="0"/>
    <connection from="553803997" to="553804001" fromLane="0" toLane="0"/>
    <connection from="553803997" to="-553803998" fromLane="0" toLane="0"/>
    <connection from="553803998" to="553804001" fromLane="0" toLane="0"/>
    <connection from="553803998" to="-553803997" fromLane="0" toLane="0"/>
    <connection from="553803999" to="-553804000" fromLane="0" toLane="0"/>
    <connection from="553803999" to="-553804001" fromLane="0" toLane="0"/>
    <connection from="553804000" to="-553803999" fromLane="0" toLane="0"/>
    <connection from="553804000" to="-553804001" fromLane="0" toLane="0"/>
    <connection from="553804001" to="-553803999" fromLane="0" toLane="0"/>
    <connection from="553804001" to="-553804000" fromLane="0" toLane="0"/>
    <connection from="553804193" to="553805927" fromLane="0" toLane="0"/>
    <connection from="553804193" to="553807360" fromLane="0" toLane="0"/>
    <connection from="553804194" to="553804195" fromLane="0" toLane="0"/>
    <connection from="553804194" to="553804446" fromLane="0" toLane="0"/>
    <connection from="553804195" to="-553804195" fromLane="0" toLane="0"/>
    <connection from="553804216" to="553804217" fromLane="0" toLane="0"/>
    <connection from="553804216" to="553804240" fromLane="0" toLane="0"/>
    <connection from="553804217" to="553804249" fromLane="0" toLane="0"/>
    <connection from="553804217" to="553804250" fromLane="0" toLane="0"/>
    <connection from="553804218" to="553804224" fromLane="0" toLane="0"/>
    <connection from="553804218" to="553804228" fromLane="0" toLane="0"/>
    <connection from="553804219" to="553804226" fromLane="0" toLane="0"/>
    <connection from="553804219" to="-553804220" fromLane="0" toLane="0"/>
    <connection from="553804220" to="553804226" fromLane="0" toLane="0"/>
    <connection from="553804220" to="-553804219" fromLane="0" toLane="0"/>
    <connection from="553804221" to="-553804222" fromLane="0" toLane="0"/>
    <connection from="553804221" to="-553804223" fromLane="0" toLane="0"/>
    <connection from="553804222" to="-553804221" fromLane="0" toLane="0"/>
    <connection from="553804222" to="-553804223" fromLane="0" toLane="0"/>
    <connection from="553804223" to="-553804221" fromLane="0" toLane="0"/>
    <connection from="553804223" to="-553804222" fromLane="0" toLane="0"/>
    <connection from="553804224" to="553804223" fromLane="0" toLane="0"/>
    <connection from="553804224" to="553804225" fromLane="0" toLane="0"/>
    <connection from="553804225" to="-553804226" fromLane="0" toLane="0"/>
    <connection from="553804225" to="-553804227" fromLane="0" toLane="0"/>
    <connection from="553804226" to="-553804225" fromLane="0" toLane="0"/>
    <connection from="553804226" to="-553804227" fromLane="0" toLane="0"/>
    <connection from="553804227" to="-553804225" fromLane="0" toLane="0"/>
    <connection from="553804227" to="-553804226" fromLane="0" toLane="0"/>
    <connection from="553804228" to="553810874" fromLane="0" toLane="0"/>
    <connection from="553804232" to="553806884" fromLane="0" toLane="0"/>
    <connection from="553804237" to="553804239" fromLane="0" toLane="0"/>
    <connection from="553804237" to="-553804238" fromLane="0" toLane="0"/>
    <connection from="553804238" to="553804239" fromLane="0" toLane="0"/>
    <connection from="553804238" to="-553804237" fromLane="0" toLane="0"/>
    <connection from="553804239" to="-553804239" fromLane="0" toLane="0"/>
    <connection from="553804241" to="553804251" fromLane="0" toLane="0"/>
    <connection from="553804241" to="-553804242" fromLane="0" toLane="0"/>
    <connection from="553804242" to="553804251" fromLane="0" toLane="0"/>
    <connection from="553804242" to="-553804241" fromLane="0" toLane="0"/>
    <connection from="553804244" to="553804252" fromLane="0" toLane="0"/>
    <connection from="553804244" to="553810868" fromLane="0" toLane="0"/>
    <connection from="553804245" to="553804247" fromLane="0" toLane="0"/>
    <connection from="553804245" to="553804248" fromLane="0" toLane="0"/>
    <connection from="553804245" to="-553804249" fromLane="0" toLane="0"/>
    <connection from="553804246" to="553804256" fromLane="0" toLane="0"/>
    <connection from="553804246" to="-553804247" fromLane="0" toLane="0"/>
    <connection from="553804246" to="-553804250" fromLane="0" toLane="0"/>
    <connection from="553804247" to="553804256" fromLane="0" toLane="0"/>
    <connection from="553804247" to="-553804246" fromLane="0" toLane="0"/>
    <connection from="553804247" to="-553804250" fromLane="0" toLane="0"/>
    <connection from="553804248" to="553804300" fromLane="0" toLane="0"/>
    <connection from="553804249" to="553804247" fromLane="0" toLane="0"/>
    <connection from="553804249" to="553804248" fromLane="0" toLane="0"/>
    <connection from="553804249" to="-553804245" fromLane="0" toLane="0"/>
    <connection from="553804250" to="553804256" fromLane="0" toLane="0"/>
    <connection from="553804250" to="-553804246" fromLane="0" toLane="0"/>
    <connection from="553804250" to="-553804247" fromLane="0" toLane="0"/>
    <connection from="553804251" to="553804255" fromLane="0" toLane="0"/>
    <connection from="553804251" to="-553804252" fromLane="0" toLane="0"/>
    <connection from="553804252" to="553804255" fromLane="0" toLane="0"/>
    <connection from="553804252" to="-553804251" fromLane="0" toLane="0"/>
    <connection from="553804253" to="-553804254" fromLane="0" toLane="0"/>
    <connection from="553804253" to="-553804255" fromLane="0" toLane="0"/>
    <connection from="553804253" to="-553804256" fromLane="0" toLane="0"/>
    <connection from="553804254" to="-553804253" fromLane="0" toLane="0"/>
    <connection from="553804254" to="-553804255" fromLane="0" toLane="0"/>
    <connection from="553804254" to="-553804256" fromLane="0" toLane="0"/>
    <connection from="553804255" to="-553804253" fromLane="0" toLane="0"/>
    <connection from="553804255" to="-553804254" fromLane="0" toLane="0"/>
    <connection from="553804255" to="-553804256" fromLane="0" toLane="0"/>
    <connection from="553804256" to="-553804253" fromLane="0" toLane="0"/>
    <connection from="553804256" to="-553804254" fromLane="0" toLane="0"/>
    <connection from="553804256" to="-553804255" fromLane="0" toLane="0"/>
    <connection from="553804258" to="553807123" fromLane="0" toLane="0"/>
    <connection from="553804258" to="553810553" fromLane="0" toLane="0"/>
    <connection from="553804295" to="553804296" fromLane="2" toLane="1"/>
    <connection from="553804295" to="553804296" fromLane="2" toLane="2"/>
    <connection from="553804295" to="553804377" fromLane="0" toLane="0"/>
    <connection from="553804295" to="553804377" fromLane="1" toLane="1"/>
    <connection from="553804295" to="553804377" fromLane="2" toLane="2"/>
    <connection from="553804296" to="553804339" fromLane="0" toLane="2"/>
    <connection from="553804296" to="553804339" fromLane="1" toLane="3"/>
    <connection from="553804296" to="553804339" fromLane="2" toLane="4"/>
    <connection from="553804297" to="553804301" fromLane="0" toLane="0"/>
    <connection from="553804297" to="553804301" fromLane="1" toLane="1"/>
    <connection from="553804297" to="553804301" fromLane="2" toLane="2"/>
    <connection from="553804300" to="553804463" fromLane="0" toLane="0"/>
    <connection from="553804300" to="553804463" fromLane="1" toLane="1"/>
    <connection from="553804301" to="553804463" fromLane="0" toLane="2"/>
    <connection from="553804301" to="553804463" fromLane="1" toLane="3"/>
    <connection from="553804301" to="553804463" fromLane="2" toLane="4"/>
    <connection from="553804324" to="553804339" fromLane="0" toLane="0"/>
    <connection from="553804324" to="553804339" fromLane="1" toLane="1"/>
    <connection from="553804377" to="553805725" fromLane="0" toLane="0"/>
    <connection from="553804377" to="553805725" fromLane="1" toLane="1"/>
    <connection from="553804377" to="553805725" fromLane="2" toLane="2"/>
    <connection from="553804440" to="553804442" fromLane="0" toLane="0"/>
    <connection from="553804440" to="553806151" fromLane="0" toLane="0"/>
    <connection from="553804440" to="-553804441" fromLane="0" toLane="0"/>
    <connection from="553804441" to="553804442" fromLane="0" toLane="0"/>
    <connection from="553804441" to="553806151" fromLane="0" toLane="0"/>
    <connection from="553804441" to="-553804440" fromLane="0" toLane="0"/>
    <connection from="553804442" to="-553804443" fromLane="0" toLane="0"/>
    <connection from="553804442" to="-553804444" fromLane="0" toLane="0"/>
    <connection from="553804443" to="-553804442" fromLane="0" toLane="0"/>
    <connection from="553804443" to="-553804444" fromLane="0" toLane="0"/>
    <connection from="553804444" to="-553804442" fromLane="0" toLane="0"/>
    <connection from="553804444" to="-553804443" fromLane="0" toLane="0"/>
    <connection from="553804445" to="553805937" fromLane="0" toLane="0"/>
    <connection from="553804445" to="553805937" fromLane="1" toLane="1"/>
    <connection from="553804445" to="553805937" fromLane="2" toLane="2"/>
    <connection from="553804445" to="553805937" fromLane="3" toLane="3"/>
    <connection from="553804445" to="553805937" fromLane="4" toLane="4"/>
    <connection from="553804445" to="-553804446" fromLane="0" toLane="0"/>
    <connection from="553804446" to="553805937" fromLane="0" toLane="0"/>
    <connection from="553804446" to="553805937" fromLane="0" toLane="1"/>
    <connection from="553804452" to="553804454" fromLane="0" toLane="0"/>
    <connection from="553804452" to="553807386" fromLane="0" toLane="0"/>
    <connection from="553804453" to="553804456" fromLane="0" toLane="0"/>
    <connection from="553804453" to="553804456" fromLane="1" toLane="1"/>
    <connection from="553804453" to="553804456" fromLane="2" toLane="2"/>
    <connection from="553804453" to="553804456" fromLane="3" toLane="3"/>
    <connection from="553804453" to="-553804454" fromLane="0" toLane="0"/>
    <connection from="553804453" to="-553804454" fromLane="0" toLane="1"/>
    <connection from="553804454" to="553804456" fromLane="0" toLane="0"/>
    <connection from="553804454" to="553804456" fromLane="1" toLane="1"/>
    <connection from="553804454" to="553804456" fromLane="1" toLane="2"/>
    <connection from="553804456" to="553804459" fromLane="3" toLane="0"/>
    <connection from="553804456" to="-553804455" fromLane="0" toLane="0"/>
    <connection from="553804456" to="-553804455" fromLane="1" toLane="1"/>
    <connection from="553804458" to="-553804457" fromLane="0" toLane="0"/>
    <connection from="553804458" to="-553804457" fromLane="1" toLane="1"/>
    <connection from="553804458" to="-553804457" fromLane="2" toLane="2"/>
    <connection from="553804458" to="-553804457" fromLane="3" toLane="3"/>
    <connection from="553804459" to="-553804457" fromLane="0" toLane="2"/>
    <connection from="553804459" to="-553804457" fromLane="0" toLane="3"/>
    <connection from="553805258" to="553805260" fromLane="0" toLane="0"/>
    <connection from="553805258" to="553807380" fromLane="0" toLane="0"/>
    <connection from="553805264" to="553807353" fromLane="0" toLane="0"/>
    <connection from="553805264" to="-553805265" fromLane="0" toLane="0"/>
    <connection from="553805265" to="553807353" fromLane="0" toLane="0"/>
    <connection from="553805265" to="-553805264" fromLane="0" toLane="0"/>
    <connection from="553805660" to="553805661" fromLane="0" toLane="0"/>
    <connection from="553805660" to="553805662" fromLane="0" toLane="0"/>
    <connection from="553805661" to="-553805661" fromLane="0" toLane="0"/>
    <connection from="553805662" to="-563108030" fromLane="0" toLane="0"/>
    <connection from="553805725" to="553805729" fromLane="0" toLane="1"/>
    <connection from="553805725" to="553805729" fromLane="1" toLane="2"/>
    <connection from="553805725" to="553805729" fromLane="2" toLane="3"/>
    <connection from="553805729" to="-553805728" fromLane="0" toLane="0"/>
    <connection from="553805729" to="-553805728" fromLane="1" toLane="1"/>
    <connection from="553805729" to="-553805728" fromLane="2" toLane="2"/>
    <connection from="553805729" to="-553805728" fromLane="3" toLane="3"/>
    <connection from="553805925" to="-553805925" fromLane="0" toLane="0"/>
    <connection from="553805927" to="553805933" fromLane="0" toLane="0"/>
    <connection from="553805931" to="553807358" fromLane="0" toLane="0"/>
    <connection from="553805933" to="-553805929" fromLane="0" toLane="0"/>
    <connection from="553805933" to="-553805932" fromLane="0" toLane="0"/>
    <connection from="553805933" to="-553805932" fromLane="1" toLane="1"/>
    <connection from="553805934" to="553805933" fromLane="0" toLane="0"/>
    <connection from="553805934" to="553805933" fromLane="1" toLane="1"/>
    <connection from="553805934" to="-553805927" fromLane="0" toLane="0"/>
    <connection from="553805937" to="-553805935" fromLane="2" toLane="0"/>
    <connection from="553805937" to="-553805935" fromLane="3" toLane="1"/>
    <connection from="553805937" to="-553805935" fromLane="4" toLane="2"/>
    <connection from="553805937" to="-553805936" fromLane="0" toLane="0"/>
    <connection from="553805937" to="-553805936" fromLane="1" toLane="1"/>
    <connection from="553805940" to="-553805941" fromLane="0" toLane="0"/>
    <connection from="553805940" to="-553805941" fromLane="1" toLane="1"/>
    <connection from="553805940" to="-553805941" fromLane="2" toLane="2"/>
    <connection from="553805945" to="-553805945" fromLane="0" toLane="0"/>
    <connection from="553805946" to="-553805946" fromLane="0" toLane="0"/>
    <connection from="553805954" to="553805957" fromLane="0" toLane="0"/>
    <connection from="553805954" to="553805957" fromLane="1" toLane="1"/>
    <connection from="553805954" to="553810631" fromLane="0" toLane="0"/>
    <connection from="553805955" to="-553805956" fromLane="0" toLane="0"/>
    <connection from="553805957" to="-553805955" fromLane="0" toLane="0"/>
    <connection from="553805957" to="-553805956" fromLane="0" toLane="0"/>
    <connection from="553805957" to="-553805956" fromLane="1" toLane="1"/>
    <connection from="553805958" to="553805960" fromLane="0" toLane="0"/>
    <connection from="553805958" to="553805960" fromLane="1" toLane="1"/>
    <connection from="553805960" to="-553805959" fromLane="0" toLane="0"/>
    <connection from="553805960" to="-553805959" fromLane="1" toLane="1"/>
    <connection from="553805961" to="553805963" fromLane="0" toLane="0"/>
    <connection from="553805961" to="553805963" fromLane="1" toLane="1"/>
    <connection from="553805963" to="-553805962" fromLane="0" toLane="0"/>
    <connection from="553805963" to="-553805962" fromLane="1" toLane="1"/>
    <connection from="553806131" to="-553806131" fromLane="0" toLane="0"/>
    <connection from="553806132" to="553806131" fromLane="0" toLane="0"/>
    <connection from="553806132" to="553806134" fromLane="0" toLane="0"/>
    <connection from="553806132" to="-553806133" fromLane="0" toLane="0"/>
    <connection from="553806133" to="553806131" fromLane="0" toLane="0"/>
    <connection from="553806133" to="553806134" fromLane="0" toLane="0"/>
    <connection from="553806133" to="-553806132" fromLane="0" toLane="0"/>
    <connection from="553806134" to="-553806134" fromLane="0" toLane="0"/>