<?xml version="1.0" encoding="UTF-8" standalone="yes"?>
<edges xmlns:xsi="http://www.w3.org/2001/XMLSchema-instance" xsi:noNamespaceSchemaLocation="http://sumo.dlr.de/xsd/edges_file.xsd">
    <edge id="-553800929" from="553801010" to="553801008" priority="0" numLanes="1" speed="10.0" shape="127.334784,36.327522 127.33479,36.327321" dong_cd="2504051" edge_len="22" left_pocket="-1" right_pocket="-1" blanest="0"/>
    <edge id="-553801078" from="553801128" to="553800856" priority="0" numLanes="2" speed="10.0" shape="127.338362,36.327412 127.338558,36.326371" dong_cd="2503070" edge_len="117" left_pocket="-1" right_pocket="-1" blanest="0"/>
    <edge id="-553801079" from="553801129" to="553801128" priority="0" numLanes="1" speed="10.0" shape="127.336507,36.327175 127.338362,36.327412" dong_cd="2503070" edge_len="169" left_pocket="-1" right_pocket="-1" blanest="0"/>
    <edge id="-553801080" from="553801130" to="553801128" priority="0" numLanes="1" speed="10.0" shape="127.340424,36.327627 127.338362,36.327412" dong_cd="2503070" edge_len="187" left_pocket="-1" right_pocket="-1" blanest="0"/>
    <edge id="-553801096" from="553801142" to="553801130" priority="0" numLanes="1" speed="10.0" shape="127.340411,36.327729 127.340424,36.327627" dong_cd="2503070" edge_len="11" left_pocket="-1" right_pocket="-1" blanest="0"/>
    <edge id="-553801661" from="553801666" to="553801128" priority="0" numLanes="2" speed="10.0" shape="127.338132,36.329148 127.338117,36.328981 127.338151,36.328577 127.338362,36.327412" dong_cd="2503070" edge_len="194" left_pocket="-1" right_pocket="-1" blanest="0"/>
    <edge id="-553802722" from="553802475" to="553802474" priority="0" numLanes="1" speed="10.0" shape="127.329223,36.32724 127.329481,36.326786 127.329507,36.326747 127.32953,36.326729 127.329589,36.326697" dong_cd="2504051" edge_len="70" left_pocket="-1" right_pocket="-1" blanest="0"/>
    <edge id="-553802903" from="553802607" to="553801008" priority="0" numLanes="1" speed="10.0" shape="127.335447,36.327203 127.335294,36.327224 127.335203,36.327237 127.335151,36.327245 127.335079,36.327257 127.334983,36.32727 127.334926,36.327281 127.334857,36.327299 127.33479,36.327321" dong_cd="2504051" edge_len="61" left_pocket="-1" right_pocket="-1" blanest="0"/>
    <edge id="-553802904" from="553802607" to="553801009" priority="0" numLanes="1" speed="10.0" shape="127.335447,36.327203 127.335582,36.32718 127.335773,36.327146" dong_cd="2504051" edge_len="30" left_pocket="-1" right_pocket="-1" blanest="0"/>
    <edge id="-553802943" from="553802640" to="553800278" priority="0" numLanes="1" speed="10.0" shape="127.323847,36.335925 127.323753,36.335974 127.323306,36.336255 127.323282,36.336269" dong_cd="2504051" edge_len="64" left_pocket="-1" right_pocket="-1" blanest="0"/>
    <edge id="-553802944" from="553802640" to="553800716" priority="0" numLanes="1" speed="10.0" shape="127.323847,36.335925 127.323997,36.335847 127.324172,36.335678" dong_cd="2504051" edge_len="40" left_pocket="-1" right_pocket="-1" blanest="0"/>
    <edge id="-553802945" from="553802641" to="553802640" priority="0" numLanes="1" speed="10.0" shape="127.323926,36.336152 127.323847,36.335925" dong_cd="2504051" edge_len="26" left_pocket="-1" right_pocket="-1" blanest="0"/>
    <edge id="-553802946" from="553802641" to="553800690" priority="0" numLanes="1" speed="10.0" shape="127.323926,36.336152 127.324055,36.335897 127.324133,36.335801 127.32437,36.335586 127.324601,36.335386 127.324784,36.335242 127.324913,36.335151 127.325077,36.33506 127.325333,36.334937 127.325408,36.334894 127.325654,36.334733 127.325762,36.334676 127.325824,36.334648 127.326062,36.334585 127.326224,36.334549 127.326649,36.334421" dong_cd="2504064" edge_len="321" left_pocket="-1" right_pocket="-1" blanest="0"/>
    <edge id="-553802956" from="553802641" to="553800726" priority="0" numLanes="1" speed="10.0" shape="127.323926,36.336152 127.323961,36.336254 127.323966,36.336269" dong_cd="2504064" edge_len="13" left_pocket="-1" right_pocket="-1" blanest="0"/>
    <edge id="-553803229" from="553802860" to="553800673" priority="0" numLanes="1" speed="10.0" shape="127.330148,36.331002 127.330269,36.33213" dong_cd="2504051" edge_len="126" left_pocket="-1" right_pocket="-1" blanest="0"/>
    <edge id="-553803445" from="553803007" to="553800716" priority="0" numLanes="1" speed="10.0" shape="127.326695,36.333672 127.326448,36.33379 127.325796,36.334259 127.325212,36.334757 127.325146,36.334815 127.324588,36.335303 127.324285,36.33556 127.324172,36.335678" dong_cd="2504051" edge_len="319" left_pocket="-1" right_pocket="-1" blanest="0"/>
    <edge id="-553803446" from="553803516" to="553803007" priority="0" numLanes="1" speed="10.0" shape="127.32669,36.332852 127.326687,36.33289 127.326555,36.33305 127.326561,36.333068 127.326725,36.333164 127.326875,36.333276 127.326961,36.333334 127.326986,36.333378 127.326991,36.333402 127.32698,36.333426 127.326952,36.333454 127.326726,36.333611 127.326711,36.333634 127.326695,36.333672" dong_cd="2504051" edge_len="123" left_pocket="-1" right_pocket="-1" blanest="0"/>
    <edge id="-553803481" from="553803038" to="553803036" priority="0" numLanes="1" speed="30.0" shape="127.340535,36.333509 127.340939,36.333504" dong_cd="2504065" edge_len="36" left_pocket="-1" right_pocket="-1" blanest="0"/>
    <edge id="-553803482" from="553803038" to="553803037" priority="0" numLanes="1" speed="30.0" shape="127.340535,36.333509 127.340543,36.333716 127.340542,36.333788 127.340529,36.3339 127.340488,36.334002 127.340425,36.334093 127.340246,36.334257 127.340063,36.3344 127.339963,36.334463 127.339875,36.334506 127.339723,36.334547 127.339577,36.334577 127.339461,36.334574 127.339378,36.33457 127.339355,36.33455 127.339337,36.334519 127.339325,36.334442 127.339324,36.334379 127.33933,36.334334 127.33935,36.334293 127.339382,36.334265 127.339436,36.334249 127.339558,36.334247 127.339713,36.334212 127.339849,36.334147 127.339994,36.334026 127.34009,36.333926 127.340109,36.333886 127.340128,36.333817 127.340137,36.333758 127.340139,36.333504" dong_cd="2504065" edge_len="342" left_pocket="-1" right_pocket="-1" blanest="0"/>
    <edge id="-553803483" from="553803039" to="553803037" priority="0" numLanes="1" speed="30.0" shape="127.340383,36.333508 127.340139,36.333504" dong_cd="2504065" edge_len="22" left_pocket="-1" right_pocket="-1" blanest="0"/>
    <edge id="-553803484" from="553803039" to="553803038" priority="0" numLanes="1" speed="30.0" shape="127.340383,36.333508 127.340535,36.333509" dong_cd="2504065" edge_len="14" left_pocket="-1" right_pocket="-1" blanest="0"/>
    <edge id="-553803485" from="553803040" to="553803035" priority="0" numLanes="1" speed="30.0" shape="127.338687,36.333507 127.338155,36.333507" dong_cd="2504065" edge_len="48" left_pocket="-1" right_pocket="-1" blanest="0"/>
    <edge id="-553803486" from="553803040" to="553803037" priority="0" numLanes="1" speed="30.0" shape="127.338687,36.333507 127.340139,36.333504" dong_cd="2504065" edge_len="130" left_pocket="-1" right_pocket="-1" blanest="0"/>
    <edge id="-553803487" from="553803041" to="553803040" priority="0" numLanes="1" speed="30.0" shape="127.338681,36.333123 127.338687,36.333507" dong_cd="2504065" edge_len="43" left_pocket="-1" right_pocket="-1" blanest="0"/>
    <edge id="-553803488" from="553803042" to="553803039" priority="0" numLanes="1" speed="30.0" shape="127.340381,36.333122 127.340383,36.333508" dong_cd="2504065" edge_len="43" left_pocket="-1" right_pocket="-1" blanest="0"/>
    <edge id="-553803489" from="553803042" to="553803041" priority="0" numLanes="1" speed="30.0" shape="127.340381,36.333122 127.338681,36.333123" dong_cd="2504065" edge_len="153" left_pocket="-1" right_pocket="-1" blanest="0"/>
    <edge id="-553803490" from="553803043" to="553803041" priority="0" numLanes="1" speed="30.0" shape="127.339545,36.332743 127.338786,36.332751 127.338742,36.33276 127.338717,36.332776 127.338688,36.332811 127.338677,36.332851 127.338681,36.333123" dong_cd="2504065" edge_len="114" left_pocket="-1" right_pocket="-1" blanest="0"/>
    <edge id="-553803491" from="553803043" to="553803042" priority="0" numLanes="1" speed="30.0" shape="127.339545,36.332743 127.340278,36.332743 127.340322,36.332747 127.34035,36.332759 127.340371,36.332787 127.340387,36.332841 127.340381,36.333122" dong_cd="2504065" edge_len="114" left_pocket="-1" right_pocket="-1" blanest="0"/>
    <edge id="-553803566" from="553803098" to="553802930" priority="0" numLanes="1" speed="30.0" shape="127.3388,36.33484 127.338165,36.334839" dong_cd="2504065" edge_len="57" left_pocket="-1" right_pocket="-1" blanest="0"/>
    <edge id="-553803567" from="553803099" to="553803098" priority="0" numLanes="1" speed="10.0" shape="127.338799,36.334724 127.3388,36.33484" dong_cd="2504065" edge_len="13" left_pocket="-1" right_pocket="-1" blanest="0"/>
    <edge id="-553803568" from="553803035" to="553802930" priority="0" numLanes="2" speed="30.0" shape="127.338155,36.333507 127.338165,36.334839" dong_cd="2504065" edge_len="148" left_pocket="1" right_pocket="0" blanest="0"/>
    <edge id="-553803569" from="553803101" to="553803036" priority="0" numLanes="1" speed="10.0" shape="127.341877,36.333428 127.341422,36.333488 127.341283,36.333497 127.340939,36.333504" dong_cd="2504065" edge_len="85" left_pocket="-1" right_pocket="-1" blanest="0"/>
    <edge id="-553803736" from="553803212" to="553803211" priority="0" numLanes="1" speed="10.0" shape="127.344649,36.331236 127.344581,36.331235 127.344554,36.331225 127.344527,36.331208 127.344511,36.33119 127.344496,36.331162 127.344455,36.33101" dong_cd="2503070" edge_len="35" left_pocket="-1" right_pocket="-1" blanest="0"/>
    <edge id="-553803737" from="553803214" to="553803213" priority="0" numLanes="1" speed="10.0" shape="127.343497,36.329833 127.343453,36.330129" dong_cd="2503070" edge_len="33" left_pocket="-1" right_pocket="-1" blanest="0"/>
    <edge id="-553803738" from="553803216" to="553803215" priority="0" numLanes="1" speed="30.0" shape="127.341656,36.32908 127.34121,36.32908" dong_cd="2503070" edge_len="40" left_pocket="-1" right_pocket="-1" blanest="0"/>
    <edge id="-553803740" from="553803217" to="553803212" priority="0" numLanes="1" speed="30.0" shape="127.344643,36.332122 127.344649,36.331236" dong_cd="2503070" edge_len="98" left_pocket="-1" right_pocket="-1" blanest="0"/>
    <edge id="-553803742" from="553803221" to="553803220" priority="0" numLanes="1" speed="30.0" shape="127.34121,36.331093 127.340891,36.3311" dong_cd="2503070" edge_len="29" left_pocket="-1" right_pocket="-1" blanest="0"/>
    <edge id="-553803743" from="553803222" to="553803219" priority="0" numLanes="1" speed="30.0" shape="127.341658,36.331091 127.341654,36.330389" dong_cd="2503070" edge_len="78" left_pocket="-1" right_pocket="-1" blanest="0"/>
    <edge id="-553803744" from="553803222" to="553803221" priority="0" numLanes="1" speed="30.0" shape="127.341658,36.331091 127.34121,36.331093" dong_cd="2503070" edge_len="40" left_pocket="-1" right_pocket="-1" blanest="0"/>
    <edge id="-553803745" from="553803223" to="553803216" priority="0" numLanes="1" speed="30.0" shape="127.341662,36.329877 127.341656,36.32908" dong_cd="2503070" edge_len="88" left_pocket="-1" right_pocket="-1" blanest="0"/>
    <edge id="-553803746" from="553803223" to="553803215" priority="0" numLanes="1" speed="30.0" shape="127.341662,36.329877 127.341268,36.329885 127.341224,36.329867 127.34121,36.329825 127.34121,36.32908" dong_cd="2503070" edge_len="127" left_pocket="-1" right_pocket="-1" blanest="0"/>
    <edge id="-553803747" from="553803224" to="553803215" priority="0" numLanes="1" speed="30.0" shape="127.341427,36.32827 127.341251,36.32828 127.341216,36.328311 127.341204,36.328353 127.34121,36.32908" dong_cd="2503070" edge_len="106" left_pocket="-1" right_pocket="-1" blanest="0"/>
    <edge id="-553803748" from="553803224" to="553803216" priority="0" numLanes="1" speed="30.0" shape="127.341427,36.32827 127.34159,36.328274 127.341633,36.328299 127.341646,36.328346 127.341656,36.32908" dong_cd="2503070" edge_len="106" left_pocket="-1" right_pocket="-1" blanest="0"/>
    <edge id="-553803773" from="553803239" to="553803096" priority="0" numLanes="2" speed="40.0" shape="127.333837,36.335698 127.3342,36.33625 127.334218,36.336269" spreadType="center" dong_cd="2504065" edge_len="72" left_pocket="-1" right_pocket="-1" blanest="0"/>
    <edge id="-553803885" from="553803311" to="553803036" priority="0" numLanes="1" speed="40.0" shape="127.34066,36.334325 127.340815,36.334116 127.340863,36.334036 127.340892,36.333979 127.340914,36.333917 127.340925,36.333817 127.340939,36.333504" dong_cd="2504065" edge_len="97" left_pocket="-1" right_pocket="-1" blanest="0"/>
    <edge id="-553803886" from="553803312" to="553803311" priority="0" numLanes="1" speed="40.0" shape="127.3409,36.334551 127.34066,36.334325" dong_cd="2504065" edge_len="33" left_pocket="-1" right_pocket="-1" blanest="0"/>
    <edge id="-553803887" from="553803314" to="553803098" priority="0" numLanes="1" speed="30.0" shape="127.339392,36.334836 127.3388,36.33484" dong_cd="2504065" edge_len="53" left_pocket="-1" right_pocket="-1" blanest="0"/>
    <edge id="-553803888" from="553803314" to="553803311" priority="0" numLanes="1" speed="30.0" shape="127.339392,36.334836 127.339673,36.334834 127.339778,36.334828 127.339893,36.334804 127.339995,36.33478 127.340166,36.334701 127.340306,36.33462 127.340372,36.334575 127.340447,36.334512 127.340608,36.334373 127.34066,36.334325" dong_cd="2504065" edge_len="134" left_pocket="-1" right_pocket="-1" blanest="0"/>
    <edge id="-553803889" from="553803316" to="553803314" priority="0" numLanes="1" speed="30.0" shape="127.339398,36.335175 127.339392,36.334836" dong_cd="2504065" edge_len="38" left_pocket="-1" right_pocket="-1" blanest="0"/>
    <edge id="-553803890" from="553803318" to="553803317" priority="0" numLanes="1" speed="30.0" shape="127.338547,36.335169 127.338497,36.335167" dong_cd="2504065" edge_len="4" left_pocket="-1" right_pocket="-1" blanest="0"/>
    <edge id="-553803891" from="553803319" to="553803318" priority="0" numLanes="1" speed="30.0" shape="127.33855,36.336113 127.338547,36.335169" dong_cd="2504065" edge_len="105" left_pocket="-1" right_pocket="-1" blanest="0"/>
    <edge id="-553803892" from="553803320" to="553803315" priority="0" numLanes="1" speed="30.0" shape="127.339416,36.336129 127.339417,36.336269" dong_cd="2504065" edge_len="16" left_pocket="-1" right_pocket="-1" blanest="0"/>
    <edge id="-553803893" from="553803320" to="553803316" priority="0" numLanes="1" speed="30.0" shape="127.339416,36.336129 127.339398,36.335175" dong_cd="2504065" edge_len="106" left_pocket="-1" right_pocket="-1" blanest="0"/>
    <edge id="-553803894" from="553803321" to="553803319" priority="0" numLanes="1" speed="30.0" shape="127.338976,36.336121 127.33855,36.336113" dong_cd="2504065" edge_len="38" left_pocket="-1" right_pocket="-1" blanest="0"/>
    <edge id="-553803895" from="553803321" to="553803320" priority="0" numLanes="1" speed="30.0" shape="127.338976,36.336121 127.339416,36.336129" dong_cd="2504065" edge_len="40" left_pocket="-1" right_pocket="-1" blanest="0"/>
    <edge id="-553803896" from="553803322" to="553803316" priority="0" numLanes="1" speed="30.0" shape="127.338979,36.335175 127.339398,36.335175" dong_cd="2504065" edge_len="38" left_pocket="-1" right_pocket="-1" blanest="0"/>
    <edge id="-553803897" from="553803322" to="553803318" priority="0" numLanes="1" speed="30.0" shape="127.338979,36.335175 127.338547,36.335169" dong_cd="2504065" edge_len="39" left_pocket="-1" right_pocket="-1" blanest="0"/>
    <edge id="-553803898" from="553803322" to="553803321" priority="0" numLanes="1" speed="30.0" shape="127.338979,36.335175 127.338976,36.336121" dong_cd="2504065" edge_len="105" left_pocket="-1" right_pocket="-1" blanest="0"/>
    <edge id="-553803899" from="553803323" to="553802930" priority="0" numLanes="2" speed="30.0" shape="127.33818,36.336125 127.338165,36.334839" dong_cd="2504065" edge_len="143" left_pocket="1" right_pocket="0" blanest="0"/>
    <edge id="-553803900" from="553803323" to="553802934" priority="0" numLanes="2" speed="50.0" shape="127.33818,36.336125 127.338183,36.336269" dong_cd="2504065" edge_len="16" left_pocket="-1" right_pocket="-1" blanest="0"/>
    <edge id="-553803901" from="553803323" to="553803319" priority="0" numLanes="1" speed="30.0" shape="127.33818,36.336125 127.33855,36.336113" dong_cd="2504065" edge_len="33" left_pocket="-1" right_pocket="-1" blanest="0"/>
    <edge id="-553803902" from="553803324" to="553803312" priority="0" numLanes="1" speed="30.0" shape="127.340204,36.335011 127.340401,36.334932 127.340791,36.334667 127.3409,36.334551" dong_cd="2504065" edge_len="82" left_pocket="-1" right_pocket="-1" blanest="0"/>
    <edge id="-553803903" from="553803325" to="553803324" priority="0" numLanes="1" speed="30.0" shape="127.339834,36.336118 127.340167,36.336109 127.34021,36.336083 127.340233,36.336035 127.34023,36.335115 127.340204,36.335011" dong_cd="2504065" edge_len="154" left_pocket="-1" right_pocket="-1" blanest="0"/>
    <edge id="-553803904" from="553803326" to="553803316" priority="0" numLanes="1" speed="30.0" shape="127.339827,36.335147 127.339398,36.335175" dong_cd="2504065" edge_len="39" left_pocket="-1" right_pocket="-1" blanest="0"/>
    <edge id="-553803905" from="553803326" to="553803324" priority="0" numLanes="1" speed="30.0" shape="127.339827,36.335147 127.339933,36.33512 127.340204,36.335011" dong_cd="2504065" edge_len="37" left_pocket="-1" right_pocket="-1" blanest="0"/>
    <edge id="-553803906" from="553803326" to="553803325" priority="0" numLanes="1" speed="30.0" shape="127.339827,36.335147 127.339834,36.336118" dong_cd="2504065" edge_len="108" left_pocket="-1" right_pocket="-1" blanest="0"/>
    <edge id="-553803909" from="553803329" to="cluster_553803242_553803328" priority="0" numLanes="4" speed="60.0" shape="127.333053,36.333443 127.3332,36.334146" spreadType="center" dong_cd="2504065" edge_len="79" left_pocket="-1" right_pocket="-1" blanest="3"/>
    <edge id="-553803910" from="553803330" to="553803325" priority="0" numLanes="1" speed="30.0" shape="127.339835,36.336269 127.339834,36.336118" dong_cd="2504065" edge_len="17" left_pocket="-1" right_pocket="-1" blanest="0"/>
    <edge id="-553803911" from="553803325" to="553803320" priority="0" numLanes="1" speed="30.0" shape="127.339834,36.336118 127.339416,36.336129" dong_cd="2504065" edge_len="38" left_pocket="-1" right_pocket="-1" blanest="0"/>
    <edge id="-553803912" from="553803331" to="553803321" priority="0" numLanes="1" speed="30.0" shape="127.338975,36.336269 127.338976,36.336121" dong_cd="2504065" edge_len="16" left_pocket="-1" right_pocket="-1" blanest="0"/>
    <edge id="-553803913" from="553803332" to="553803319" priority="0" numLanes="1" speed="30.0" shape="127.338552,36.336269 127.33855,36.336113" dong_cd="2504065" edge_len="17" left_pocket="-1" right_pocket="-1" blanest="0"/>
    <edge id="-553803914" from="553803333" to="553803221" priority="0" numLanes="1" speed="30.0" shape="127.341441,36.331754 127.34127,36.331753 127.341226,36.331742 127.341215,36.331709 127.34121,36.331093" dong_cd="2503070" edge_len="92" left_pocket="-1" right_pocket="-1" blanest="0"/>
    <edge id="-553803915" from="553803333" to="553803222" priority="0" numLanes="1" speed="30.0" shape="127.341441,36.331754 127.34162,36.331753 127.341654,36.331742 127.341667,36.331717 127.341658,36.331091" dong_cd="2503070" edge_len="92" left_pocket="-1" right_pocket="-1" blanest="0"/>
    <edge id="-553803916" from="553803334" to="553803219" priority="0" numLanes="1" speed="30.0" shape="127.34166,36.330137 127.341654,36.330389" dong_cd="2503070" edge_len="28" left_pocket="-1" right_pocket="-1" blanest="0"/>
    <edge id="-553803917" from="553803334" to="553803223" priority="0" numLanes="1" speed="30.0" shape="127.34166,36.330137 127.341662,36.329877" dong_cd="2503070" edge_len="29" left_pocket="-1" right_pocket="-1" blanest="0"/>
    <edge id="-553803918" from="553803334" to="553803218" priority="0" numLanes="1" speed="30.0" shape="127.34166,36.330137 127.340886,36.330143" dong_cd="2503070" edge_len="69" left_pocket="-1" right_pocket="-1" blanest="0"/>
    <edge id="-553803930" from="cluster_553803340_553803341" to="cluster_553803242_553803328" priority="0" numLanes="4" speed="60.0" shape="127.333166,36.334875 127.332997,36.334434 127.332897,36.334134" spreadType="center" dong_cd="2504065" edge_len="86" left_pocket="-1" right_pocket="-1" blanest="3"/>
    <edge id="-553803931" from="cluster_553803340_553803341" to="553803239" priority="0" numLanes="4" speed="60.0" shape="127.333465,36.334853 127.333837,36.335698" spreadType="center" dong_cd="2504065" edge_len="100" left_pocket="-1" right_pocket="-1" blanest="3"/>
    <edge id="-553803971" from="553803380" to="553802930" priority="0" numLanes="1" speed="30.0" shape="127.336999,36.334856 127.338165,36.334839" dong_cd="2504065" edge_len="105" left_pocket="-1" right_pocket="-1" blanest="0"/>
    <edge id="-553803972" from="553803380" to="553803100" priority="0" numLanes="1" speed="30.0" shape="127.336999,36.334856 127.335971,36.334866 127.335942,36.334861 127.335923,36.334853 127.335912,36.334838 127.335901,36.334808 127.335892,36.333517" dong_cd="2504065" edge_len="246" left_pocket="-1" right_pocket="-1" blanest="0"/>
    <edge id="-553803973" from="553803380" to="553803379" priority="0" numLanes="1" speed="30.0" shape="127.336999,36.334856 127.336992,36.335165" dong_cd="2504065" edge_len="34" left_pocket="-1" right_pocket="-1" blanest="0"/>
    <edge id="-553803974" from="553803381" to="553803379" priority="0" numLanes="1" speed="30.0" shape="127.336996,36.335509 127.336992,36.335165" dong_cd="2504065" edge_len="38" left_pocket="-1" right_pocket="-1" blanest="0"/>
    <edge id="-553803975" from="553803382" to="553803379" priority="0" numLanes="1" speed="30.0" shape="127.336061,36.33552 127.335963,36.335284 127.335933,36.335207 127.33593,36.335196 127.335929,36.335181 127.335934,36.335167 127.335945,36.335157 127.335963,36.335152 127.335995,36.335152 127.336992,36.335165" dong_cd="2504065" edge_len="137" left_pocket="-1" right_pocket="-1" blanest="0"/>
    <edge id="-553803976" from="553803382" to="553803381" priority="0" numLanes="1" speed="30.0" shape="127.336061,36.33552 127.336996,36.335509" dong_cd="2504065" edge_len="84" left_pocket="-1" right_pocket="-1" blanest="0"/>
    <edge id="-553803977" from="553803383" to="553803378" priority="0" numLanes="1" speed="30.0" shape="127.336225,36.335912 127.336316,36.336097 127.336333,36.336119 127.336356,36.336137 127.336393,36.336144 127.337001,36.336135" dong_cd="2504065" edge_len="86" left_pocket="-1" right_pocket="-1" blanest="0"/>
    <edge id="-553803978" from="553803383" to="553803382" priority="0" numLanes="1" speed="30.0" shape="127.336225,36.335912 127.336061,36.33552" dong_cd="2504065" edge_len="46" left_pocket="-1" right_pocket="-1" blanest="0"/>
    <edge id="-553803979" from="553803384" to="553803378" priority="0" numLanes="1" speed="30.0" shape="127.336998,36.335877 127.337001,36.336135" dong_cd="2504065" edge_len="29" left_pocket="-1" right_pocket="-1" blanest="0"/>
    <edge id="-553803980" from="553803384" to="553803381" priority="0" numLanes="1" speed="30.0" shape="127.336998,36.335877 127.336996,36.335509" dong_cd="2504065" edge_len="41" left_pocket="-1" right_pocket="-1" blanest="0"/>
    <edge id="-553803981" from="553803384" to="553803383" priority="0" numLanes="1" speed="30.0" shape="127.336998,36.335877 127.336225,36.335912" dong_cd="2504065" edge_len="70" left_pocket="-1" right_pocket="-1" blanest="0"/>
    <edge id="-553803982" from="553803385" to="553803323" priority="0" numLanes="1" speed="30.0" shape="127.337828,36.336132 127.33818,36.336125" dong_cd="2504065" edge_len="32" left_pocket="-1" right_pocket="-1" blanest="0"/>
    <edge id="-553803983" from="553803386" to="553803378" priority="0" numLanes="1" speed="30.0" shape="127.337418,36.336135 127.337001,36.336135" dong_cd="2504065" edge_len="37" left_pocket="-1" right_pocket="-1" blanest="0"/>
    <edge id="-553803984" from="553803386" to="553803385" priority="0" numLanes="1" speed="30.0" shape="127.337418,36.336135 127.337828,36.336132" dong_cd="2504065" edge_len="37" left_pocket="-1" right_pocket="-1" blanest="0"/>
    <edge id="-553803985" from="553803387" to="553803379" priority="0" numLanes="1" speed="30.0" shape="127.337411,36.335157 127.336992,36.335165" dong_cd="2504065" edge_len="38" left_pocket="-1" right_pocket="-1" blanest="0"/>
    <edge id="-553803986" from="553803387" to="553803386" priority="0" numLanes="1" speed="30.0" shape="127.337411,36.335157 127.337418,36.336135" dong_cd="2504065" edge_len="109" left_pocket="-1" right_pocket="-1" blanest="0"/>
    <edge id="-553803987" from="553803387" to="553803385" priority="0" numLanes="1" speed="30.0" shape="127.337411,36.335157 127.337741,36.33515 127.33778,36.335151 127.337802,36.33516 127.337811,36.335183 127.337814,36.335203 127.337818,36.335745 127.337828,36.336132" dong_cd="2504065" edge_len="143" left_pocket="-1" right_pocket="-1" blanest="0"/>
    <edge id="-553803988" from="553803389" to="553803100" priority="0" numLanes="1" speed="30.0" shape="127.336245,36.333517 127.335892,36.333517" dong_cd="2504065" edge_len="32" left_pocket="-1" right_pocket="-1" blanest="0"/>
    <edge id="-553803989" from="553803390" to="553803380" priority="0" numLanes="1" speed="30.0" shape="127.336996,36.334576 127.336999,36.334856" dong_cd="2504065" edge_len="31" left_pocket="-1" right_pocket="-1" blanest="0"/>
    <edge id="-553803990" from="553803390" to="553803388" priority="0" numLanes="1" speed="30.0" shape="127.336996,36.334576 127.336987,36.333516" dong_cd="2504065" edge_len="118" left_pocket="-1" right_pocket="-1" blanest="0"/>
    <edge id="-553803991" from="553803391" to="553803035" priority="0" numLanes="1" speed="30.0" shape="127.337786,36.333509 127.338155,36.333507" dong_cd="2504065" edge_len="33" left_pocket="-1" right_pocket="-1" blanest="0"/>
    <edge id="-553803992" from="553803392" to="553803390" priority="0" numLanes="1" speed="30.0" shape="127.337387,36.334577 127.336996,36.334576" dong_cd="2504065" edge_len="35" left_pocket="-1" right_pocket="-1" blanest="0"/>
    <edge id="-553803993" from="553803392" to="553803391" priority="0" numLanes="1" speed="30.0" shape="127.337387,36.334577 127.337729,36.33457 127.337753,36.334566 127.33777,36.334556 127.337779,36.334542 127.337782,36.334527 127.337784,36.334508 127.337786,36.333509" dong_cd="2504065" edge_len="151" left_pocket="-1" right_pocket="-1" blanest="0"/>
    <edge id="-553803994" from="553803393" to="553803388" priority="0" numLanes="1" speed="30.0" shape="127.337383,36.33351 127.336987,36.333516" dong_cd="2504065" edge_len="36" left_pocket="-1" right_pocket="-1" blanest="0"/>
    <edge id="-553803995" from="553803393" to="553803391" priority="0" numLanes="1" speed="30.0" shape="127.337383,36.33351 127.337786,36.333509" dong_cd="2504065" edge_len="36" left_pocket="-1" right_pocket="-1" blanest="0"/>
    <edge id="-553803996" from="553803393" to="553803392" priority="0" numLanes="1" speed="30.0" shape="127.337383,36.33351 127.337387,36.334577" dong_cd="2504065" edge_len="118" left_pocket="-1" right_pocket="-1" blanest="0"/>
    <edge id="-553803997" from="553803394" to="553803389" priority="0" numLanes="1" speed="30.0" shape="127.336701,36.334578 127.336294,36.334577 127.336278,36.334572 127.336268,36.334564 127.33626,36.334552 127.336256,36.334537 127.336245,36.333517" dong_cd="2504065" edge_len="156" left_pocket="-1" right_pocket="-1" blanest="0"/>
    <edge id="-553803998" from="553803394" to="553803390" priority="0" numLanes="1" speed="30.0" shape="127.336701,36.334578 127.336996,36.334576" dong_cd="2504065" edge_len="26" left_pocket="-1" right_pocket="-1" blanest="0"/>
    <edge id="-553803999" from="553803395" to="553803388" priority="0" numLanes="1" speed="30.0" shape="127.336703,36.333514 127.336987,36.333516" dong_cd="2504065" edge_len="25" left_pocket="-1" right_pocket="-1" blanest="0"/>
    <edge id="-553804000" from="553803395" to="553803389" priority="0" numLanes="1" speed="30.0" shape="127.336703,36.333514 127.336245,36.333517" dong_cd="2504065" edge_len="41" left_pocket="-1" right_pocket="-1" blanest="0"/>
    <edge id="-553804001" from="553803395" to="553803394" priority="0" numLanes="1" speed="30.0" shape="127.336703,36.333514 127.336701,36.334578" dong_cd="2504065" edge_len="118" left_pocket="-1" right_pocket="-1" blanest="0"/>
    <edge id="-553804193" from="553803517" to="553803516" priority="0" numLanes="1" speed="10.0" shape="127.326758,36.332764 127.32669,36.332852" dong_cd="2504051" edge_len="12" left_pocket="-1" right_pocket="-1" blanest="0"/>
    <edge id="-553804194" from="553803518" to="553803514" priority="0" numLanes="1" speed="10.0" shape="127.328425,36.331879 127.328329,36.331893 127.327797,36.331889 127.327744,36.331885 127.3277,36.331869 127.327659,36.33185" dong_cd="2504051" edge_len="70" left_pocket="-1" right_pocket="-1" blanest="0"/>
    <edge id="-553804195" from="553803519" to="553803518" priority="0" numLanes="1" speed="10.0" shape="127.328543,36.331597 127.328478,36.331637 127.328444,36.331688 127.328428,36.331746 127.328424,36.331813 127.328425,36.331879" dong_cd="2504051" edge_len="35" left_pocket="-1" right_pocket="-1" blanest="0"/>
    <edge id="-553804202" from="553803523" to="553803522" priority="0" numLanes="5" speed="60.0" shape="127.326467,36.332169 127.326745,36.332162 127.327695,36.33214 127.328054,36.332131" spreadType="center" dong_cd="2504051" edge_len="143" left_pocket="-1" right_pocket="-1" blanest="0"/>