<?xml version="1.0" encoding="UTF-8"?>

<!-- generated on 02/15/21 10:44:31 by Eclipse SUMO netconvert Version 1.8.0
<configuration xmlns:xsi="http://www.w3.org/2001/XMLSchema-instance" xsi:noNamespaceSchemaLocation="http://sumo.dlr.de/xsd/netconvertConfiguration.xsd">

    <input>
        <node-files value="C:\Users\Admin\Desktop\vscode\city-traffic_RL\Net_data\3x3grid.nod.xml"/>
        <edge-files value="C:\Users\Admin\Desktop\vscode\city-traffic_RL\Net_data\3x3grid.edg.xml"/>
        <tllogic-files value="C:\Users\Admin\Desktop\vscode\city-traffic_RL\Net_data\3x3grid_tl.add.xml"/>
    </input>

    <output>
        <output-file value="C:\Users\Admin\Desktop\vscode\city-traffic_RL\Net_data\3x3grid.net.xml"/>
    </output>

    <report>
        <aggregate-warnings value="5"/>
    </report>

</configuration>
-->

<net version="1.6" junctionCornerDetail="5" limitTurnSpeed="5.50" xmlns:xsi="http://www.w3.org/2001/XMLSchema-instance" xsi:noNamespaceSchemaLocation="http://sumo.dlr.de/xsd/net_file.xsd">

    <location netOffset="750.00,450.00" convBoundary="0.00,0.00,1200.00,1200.00" origBoundary="-750.00,-450.00,450.00,750.00" projParameter="!"/>

    <edge id=":n_0_0_0" function="internal">
        <lane id=":n_0_0_0_0" index="0" speed="6.51" length="9.03" shape="292.00,913.60 291.65,911.15 290.60,909.40 288.85,908.35 286.40,908.00"/>
    </edge>
    <edge id=":n_0_0_1" function="internal">
        <lane id=":n_0_0_1_0" index="0" speed="13.89" length="27.20" shape="292.00,913.60 292.00,886.40"/>
        <lane id=":n_0_0_1_1" index="1" speed="13.89" length="27.20" shape="295.20,913.60 295.20,886.40"/>
        <lane id=":n_0_0_1_2" index="2" speed="13.89" length="27.20" shape="298.40,913.60 298.40,886.40"/>
    </edge>
    <edge id=":n_0_0_4" function="internal">
        <lane id=":n_0_0_4_0" index="0" speed="10.36" length="24.51" shape="298.40,913.60 299.35,906.95 302.20,902.20 306.95,899.35 313.60,898.40"/>
    </edge>
    <edge id=":n_0_0_5" function="internal">
        <lane id=":n_0_0_5_0" index="0" speed="3.65" length="4.67" shape="298.40,913.60 299.20,912.40 300.00,912.00 300.80,912.40 301.60,913.60"/>
    </edge>
    <edge id=":n_0_0_6" function="internal">
        <lane id=":n_0_0_6_0" index="0" speed="6.51" length="9.03" shape="313.60,908.00 311.15,908.35 309.40,909.40 308.35,911.15 308.00,913.60"/>
    </edge>
    <edge id=":n_0_0_7" function="internal">
        <lane id=":n_0_0_7_0" index="0" speed="13.89" length="27.20" shape="313.60,908.00 286.40,908.00"/>
        <lane id=":n_0_0_7_1" index="1" speed="13.89" length="27.20" shape="313.60,904.80 286.40,904.80"/>
        <lane id=":n_0_0_7_2" index="2" speed="13.89" length="27.20" shape="313.60,901.60 286.40,901.60"/>
    </edge>
    <edge id=":n_0_0_10" function="internal">
        <lane id=":n_0_0_10_0" index="0" speed="10.36" length="24.51" shape="313.60,901.60 306.95,900.65 302.20,897.80 299.35,893.05 298.40,886.40"/>
    </edge>
    <edge id=":n_0_0_11" function="internal">
        <lane id=":n_0_0_11_0" index="0" speed="3.65" length="4.67" shape="313.60,901.60 312.40,900.80 312.00,900.00 312.40,899.20 313.60,898.40"/>
    </edge>
    <edge id=":n_0_0_12" function="internal">
        <lane id=":n_0_0_12_0" index="0" speed="6.51" length="9.03" shape="308.00,886.40 308.35,888.85 309.40,890.60 311.15,891.65 313.60,892.00"/>
    </edge>
    <edge id=":n_0_0_13" function="internal">
        <lane id=":n_0_0_13_0" index="0" speed="13.89" length="27.20" shape="308.00,886.40 308.00,913.60"/>
        <lane id=":n_0_0_13_1" index="1" speed="13.89" length="27.20" shape="304.80,886.40 304.80,913.60"/>
        <lane id=":n_0_0_13_2" index="2" speed="13.89" length="27.20" shape="301.60,886.40 301.60,913.60"/>
    </edge>
    <edge id=":n_0_0_16" function="internal">
        <lane id=":n_0_0_16_0" index="0" speed="10.36" length="24.51" shape="301.60,886.40 300.65,893.05 297.80,897.80 293.05,900.65 286.40,901.60"/>
    </edge>
    <edge id=":n_0_0_17" function="internal">
        <lane id=":n_0_0_17_0" index="0" speed="3.65" length="4.67" shape="301.60,886.40 300.80,887.60 300.00,888.00 299.20,887.60 298.40,886.40"/>
    </edge>
    <edge id=":n_0_0_18" function="internal">
        <lane id=":n_0_0_18_0" index="0" speed="6.51" length="9.03" shape="286.40,892.00 288.85,891.65 290.60,890.60 291.65,888.85 292.00,886.40"/>
    </edge>
    <edge id=":n_0_0_19" function="internal">
        <lane id=":n_0_0_19_0" index="0" speed="13.89" length="27.20" shape="286.40,892.00 313.60,892.00"/>
        <lane id=":n_0_0_19_1" index="1" speed="13.89" length="27.20" shape="286.40,895.20 313.60,895.20"/>
        <lane id=":n_0_0_19_2" index="2" speed="13.89" length="27.20" shape="286.40,898.40 313.60,898.40"/>
    </edge>
    <edge id=":n_0_0_22" function="internal">
        <lane id=":n_0_0_22_0" index="0" speed="10.36" length="24.51" shape="286.40,898.40 293.05,899.35 297.80,902.20 300.65,906.95 301.60,913.60"/>
    </edge>
    <edge id=":n_0_0_23" function="internal">
        <lane id=":n_0_0_23_0" index="0" speed="3.65" length="2.34" shape="286.40,898.40 287.60,899.20 288.00,900.00"/>
    </edge>
    <edge id=":n_0_0_24" function="internal">
        <lane id=":n_0_0_24_0" index="0" speed="3.65" length="2.34" shape="288.00,900.00 287.60,900.80 286.40,901.60"/>
    </edge>
    <edge id=":n_0_1_0" function="internal">
        <lane id=":n_0_1_0_0" index="0" speed="6.51" length="9.03" shape="292.00,613.60 291.65,611.15 290.60,609.40 288.85,608.35 286.40,608.00"/>
    </edge>
    <edge id=":n_0_1_1" function="internal">
        <lane id=":n_0_1_1_0" index="0" speed="13.89" length="27.20" shape="292.00,613.60 292.00,586.40"/>
        <lane id=":n_0_1_1_1" index="1" speed="13.89" length="27.20" shape="295.20,613.60 295.20,586.40"/>
        <lane id=":n_0_1_1_2" index="2" speed="13.89" length="27.20" shape="298.40,613.60 298.40,586.40"/>
    </edge>
    <edge id=":n_0_1_4" function="internal">
        <lane id=":n_0_1_4_0" index="0" speed="10.36" length="24.51" shape="298.40,613.60 299.35,606.95 302.20,602.20 306.95,599.35 313.60,598.40"/>
    </edge>
    <edge id=":n_0_1_5" function="internal">
        <lane id=":n_0_1_5_0" index="0" speed="3.65" length="4.67" shape="298.40,613.60 299.20,612.40 300.00,612.00 300.80,612.40 301.60,613.60"/>
    </edge>
    <edge id=":n_0_1_6" function="internal">
        <lane id=":n_0_1_6_0" index="0" speed="6.51" length="9.03" shape="313.60,608.00 311.15,608.35 309.40,609.40 308.35,611.15 308.00,613.60"/>
    </edge>
    <edge id=":n_0_1_7" function="internal">
        <lane id=":n_0_1_7_0" index="0" speed="13.89" length="27.20" shape="313.60,608.00 286.40,608.00"/>
        <lane id=":n_0_1_7_1" index="1" speed="13.89" length="27.20" shape="313.60,604.80 286.40,604.80"/>
        <lane id=":n_0_1_7_2" index="2" speed="13.89" length="27.20" shape="313.60,601.60 286.40,601.60"/>
    </edge>
    <edge id=":n_0_1_10" function="internal">
        <lane id=":n_0_1_10_0" index="0" speed="10.36" length="24.51" shape="313.60,601.60 306.95,600.65 302.20,597.80 299.35,593.05 298.40,586.40"/>
    </edge>
    <edge id=":n_0_1_11" function="internal">
        <lane id=":n_0_1_11_0" index="0" speed="3.65" length="4.67" shape="313.60,601.60 312.40,600.80 312.00,600.00 312.40,599.20 313.60,598.40"/>
    </edge>
    <edge id=":n_0_1_12" function="internal">
        <lane id=":n_0_1_12_0" index="0" speed="6.51" length="9.03" shape="308.00,586.40 308.35,588.85 309.40,590.60 311.15,591.65 313.60,592.00"/>
    </edge>
    <edge id=":n_0_1_13" function="internal">
        <lane id=":n_0_1_13_0" index="0" speed="13.89" length="27.20" shape="308.00,586.40 308.00,613.60"/>
        <lane id=":n_0_1_13_1" index="1" speed="13.89" length="27.20" shape="304.80,586.40 304.80,613.60"/>
        <lane id=":n_0_1_13_2" index="2" speed="13.89" length="27.20" shape="301.60,586.40 301.60,613.60"/>
    </edge>
    <edge id=":n_0_1_16" function="internal">
        <lane id=":n_0_1_16_0" index="0" speed="10.36" length="24.51" shape="301.60,586.40 300.65,593.05 297.80,597.80 293.05,600.65 286.40,601.60"/>
    </edge>
    <edge id=":n_0_1_17" function="internal">
        <lane id=":n_0_1_17_0" index="0" speed="3.65" length="4.67" shape="301.60,586.40 300.80,587.60 300.00,588.00 299.20,587.60 298.40,586.40"/>
    </edge>
    <edge id=":n_0_1_18" function="internal">
        <lane id=":n_0_1_18_0" index="0" speed="6.51" length="9.03" shape="286.40,592.00 288.85,591.65 290.60,590.60 291.65,588.85 292.00,586.40"/>
    </edge>
    <edge id=":n_0_1_19" function="internal">
        <lane id=":n_0_1_19_0" index="0" speed="13.89" length="27.20" shape="286.40,592.00 313.60,592.00"/>
        <lane id=":n_0_1_19_1" index="1" speed="13.89" length="27.20" shape="286.40,595.20 313.60,595.20"/>
        <lane id=":n_0_1_19_2" index="2" speed="13.89" length="27.20" shape="286.40,598.40 313.60,598.40"/>
    </edge>
    <edge id=":n_0_1_22" function="internal">
        <lane id=":n_0_1_22_0" index="0" speed="10.36" length="24.51" shape="286.40,598.40 293.05,599.35 297.80,602.20 300.65,606.95 301.60,613.60"/>
    </edge>
    <edge id=":n_0_1_23" function="internal">
        <lane id=":n_0_1_23_0" index="0" speed="3.65" length="2.34" shape="286.40,598.40 287.60,599.20 288.00,600.00"/>
    </edge>
    <edge id=":n_0_1_24" function="internal">
        <lane id=":n_0_1_24_0" index="0" speed="3.65" length="2.34" shape="288.00,600.00 287.60,600.80 286.40,601.60"/>
    </edge>
    <edge id=":n_0_2_0" function="internal">
        <lane id=":n_0_2_0_0" index="0" speed="6.51" length="9.03" shape="292.00,313.60 291.65,311.15 290.60,309.40 288.85,308.35 286.40,308.00"/>
    </edge>
    <edge id=":n_0_2_1" function="internal">
        <lane id=":n_0_2_1_0" index="0" speed="13.89" length="27.20" shape="292.00,313.60 292.00,286.40"/>
        <lane id=":n_0_2_1_1" index="1" speed="13.89" length="27.20" shape="295.20,313.60 295.20,286.40"/>
        <lane id=":n_0_2_1_2" index="2" speed="13.89" length="27.20" shape="298.40,313.60 298.40,286.40"/>
    </edge>
    <edge id=":n_0_2_4" function="internal">
        <lane id=":n_0_2_4_0" index="0" speed="10.36" length="24.51" shape="298.40,313.60 299.35,306.95 302.20,302.20 306.95,299.35 313.60,298.40"/>
    </edge>
    <edge id=":n_0_2_5" function="internal">
        <lane id=":n_0_2_5_0" index="0" speed="3.65" length="4.67" shape="298.40,313.60 299.20,312.40 300.00,312.00 300.80,312.40 301.60,313.60"/>
    </edge>
    <edge id=":n_0_2_6" function="internal">
        <lane id=":n_0_2_6_0" index="0" speed="6.51" length="9.03" shape="313.60,308.00 311.15,308.35 309.40,309.40 308.35,311.15 308.00,313.60"/>
    </edge>
    <edge id=":n_0_2_7" function="internal">
        <lane id=":n_0_2_7_0" index="0" speed="13.89" length="27.20" shape="313.60,308.00 286.40,308.00"/>
        <lane id=":n_0_2_7_1" index="1" speed="13.89" length="27.20" shape="313.60,304.80 286.40,304.80"/>
        <lane id=":n_0_2_7_2" index="2" speed="13.89" length="27.20" shape="313.60,301.60 286.40,301.60"/>
    </edge>
    <edge id=":n_0_2_10" function="internal">
        <lane id=":n_0_2_10_0" index="0" speed="10.36" length="24.51" shape="313.60,301.60 306.95,300.65 302.20,297.80 299.35,293.05 298.40,286.40"/>
    </edge>
    <edge id=":n_0_2_11" function="internal">
        <lane id=":n_0_2_11_0" index="0" speed="3.65" length="4.67" shape="313.60,301.60 312.40,300.80 312.00,300.00 312.40,299.20 313.60,298.40"/>
    </edge>
    <edge id=":n_0_2_12" function="internal">
        <lane id=":n_0_2_12_0" index="0" speed="6.51" length="9.03" shape="308.00,286.40 308.35,288.85 309.40,290.60 311.15,291.65 313.60,292.00"/>
    </edge>
    <edge id=":n_0_2_13" function="internal">
        <lane id=":n_0_2_13_0" index="0" speed="13.89" length="27.20" shape="308.00,286.40 308.00,313.60"/>
        <lane id=":n_0_2_13_1" index="1" speed="13.89" length="27.20" shape="304.80,286.40 304.80,313.60"/>
        <lane id=":n_0_2_13_2" index="2" speed="13.89" length="27.20" shape="301.60,286.40 301.60,313.60"/>
    </edge>
    <edge id=":n_0_2_16" function="internal">
        <lane id=":n_0_2_16_0" index="0" speed="10.36" length="24.51" shape="301.60,286.40 300.65,293.05 297.80,297.80 293.05,300.65 286.40,301.60"/>
    </edge>
    <edge id=":n_0_2_17" function="internal">
        <lane id=":n_0_2_17_0" index="0" speed="3.65" length="4.67" shape="301.60,286.40 300.80,287.60 300.00,288.00 299.20,287.60 298.40,286.40"/>
    </edge>
    <edge id=":n_0_2_18" function="internal">
        <lane id=":n_0_2_18_0" index="0" speed="6.51" length="9.03" shape="286.40,292.00 288.85,291.65 290.60,290.60 291.65,288.85 292.00,286.40"/>
    </edge>
    <edge id=":n_0_2_19" function="internal">
        <lane id=":n_0_2_19_0" index="0" speed="13.89" length="27.20" shape="286.40,292.00 313.60,292.00"/>
        <lane id=":n_0_2_19_1" index="1" speed="13.89" length="27.20" shape="286.40,295.20 313.60,295.20"/>
        <lane id=":n_0_2_19_2" index="2" speed="13.89" length="27.20" shape="286.40,298.40 313.60,298.40"/>
    </edge>
    <edge id=":n_0_2_22" function="internal">
        <lane id=":n_0_2_22_0" index="0" speed="10.36" length="24.51" shape="286.40,298.40 293.05,299.35 297.80,302.20 300.65,306.95 301.60,313.60"/>
    </edge>
    <edge id=":n_0_2_23" function="internal">
        <lane id=":n_0_2_23_0" index="0" speed="3.65" length="2.34" shape="286.40,298.40 287.60,299.20 288.00,300.00"/>
    </edge>
    <edge id=":n_0_2_24" function="internal">
        <lane id=":n_0_2_24_0" index="0" speed="3.65" length="2.34" shape="288.00,300.00 287.60,300.80 286.40,301.60"/>
    </edge>
    <edge id=":n_0_d_0" function="internal">
        <lane id=":n_0_d_0_0" index="0" speed="3.65" length="4.67" shape="298.40,0.00 299.20,-1.20 300.00,-1.60 300.80,-1.20 301.60,0.00"/>
    </edge>
    <edge id=":n_0_l_0" function="internal">
        <lane id=":n_0_l_0_0" index="0" speed="3.65" length="4.67" shape="0.00,901.60 -1.20,900.80 -1.60,900.00 -1.20,899.20 0.00,898.40"/>
    </edge>
    <edge id=":n_0_r_0" function="internal">
        <lane id=":n_0_r_0_0" index="0" speed="3.65" length="4.67" shape="1200.00,898.40 1201.20,899.20 1201.60,900.00 1201.20,900.80 1200.00,901.60"/>
    </edge>
    <edge id=":n_0_u_0" function="internal">
        <lane id=":n_0_u_0_0" index="0" speed="3.65" length="4.67" shape="301.60,1200.00 300.80,1201.20 300.00,1201.60 299.20,1201.20 298.40,1200.00"/>
    </edge>
    <edge id=":n_1_0_0" function="internal">
        <lane id=":n_1_0_0_0" index="0" speed="6.51" length="9.03" shape="592.00,913.60 591.65,911.15 590.60,909.40 588.85,908.35 586.40,908.00"/>
    </edge>
    <edge id=":n_1_0_1" function="internal">
        <lane id=":n_1_0_1_0" index="0" speed="13.89" length="27.20" shape="592.00,913.60 592.00,886.40"/>
        <lane id=":n_1_0_1_1" index="1" speed="13.89" length="27.20" shape="595.20,913.60 595.20,886.40"/>
        <lane id=":n_1_0_1_2" index="2" speed="13.89" length="27.20" shape="598.40,913.60 598.40,886.40"/>
    </edge>
    <edge id=":n_1_0_4" function="internal">
        <lane id=":n_1_0_4_0" index="0" speed="10.36" length="24.51" shape="598.40,913.60 599.35,906.95 602.20,902.20 606.95,899.35 613.60,898.40"/>
    </edge>
    <edge id=":n_1_0_5" function="internal">
        <lane id=":n_1_0_5_0" index="0" speed="3.65" length="4.67" shape="598.40,913.60 599.20,912.40 600.00,912.00 600.80,912.40 601.60,913.60"/>
    </edge>
    <edge id=":n_1_0_6" function="internal">
        <lane id=":n_1_0_6_0" index="0" speed="6.51" length="9.03" shape="613.60,908.00 611.15,908.35 609.40,909.40 608.35,911.15 608.00,913.60"/>
    </edge>
    <edge id=":n_1_0_7" function="internal">
        <lane id=":n_1_0_7_0" index="0" speed="13.89" length="27.20" shape="613.60,908.00 586.40,908.00"/>
        <lane id=":n_1_0_7_1" index="1" speed="13.89" length="27.20" shape="613.60,904.80 586.40,904.80"/>
        <lane id=":n_1_0_7_2" index="2" speed="13.89" length="27.20" shape="613.60,901.60 586.40,901.60"/>
    </edge>
    <edge id=":n_1_0_10" function="internal">
        <lane id=":n_1_0_10_0" index="0" speed="10.36" length="24.51" shape="613.60,901.60 606.95,900.65 602.20,897.80 599.35,893.05 598.40,886.40"/>
    </edge>
    <edge id=":n_1_0_11" function="internal">
        <lane id=":n_1_0_11_0" index="0" speed="3.65" length="4.67" shape="613.60,901.60 612.40,900.80 612.00,900.00 612.40,899.20 613.60,898.40"/>
    </edge>
    <edge id=":n_1_0_12" function="internal">
        <lane id=":n_1_0_12_0" index="0" speed="6.51" length="9.03" shape="608.00,886.40 608.35,888.85 609.40,890.60 611.15,891.65 613.60,892.00"/>
    </edge>
    <edge id=":n_1_0_13" function="internal">
        <lane id=":n_1_0_13_0" index="0" speed="13.89" length="27.20" shape="608.00,886.40 608.00,913.60"/>
        <lane id=":n_1_0_13_1" index="1" speed="13.89" length="27.20" shape="604.80,886.40 604.80,913.60"/>
        <lane id=":n_1_0_13_2" index="2" speed="13.89" length="27.20" shape="601.60,886.40 601.60,913.60"/>
    </edge>
    <edge id=":n_1_0_16" function="internal">
        <lane id=":n_1_0_16_0" index="0" speed="10.36" length="24.51" shape="601.60,886.40 600.65,893.05 597.80,897.80 593.05,900.65 586.40,901.60"/>
    </edge>
    <edge id=":n_1_0_17" function="internal">
        <lane id=":n_1_0_17_0" index="0" speed="3.65" length="4.67" shape="601.60,886.40 600.80,887.60 600.00,888.00 599.20,887.60 598.40,886.40"/>
    </edge>
    <edge id=":n_1_0_18" function="internal">
        <lane id=":n_1_0_18_0" index="0" speed="6.51" length="9.03" shape="586.40,892.00 588.85,891.65 590.60,890.60 591.65,888.85 592.00,886.40"/>
    </edge>
    <edge id=":n_1_0_19" function="internal">
        <lane id=":n_1_0_19_0" index="0" speed="13.89" length="27.20" shape="586.40,892.00 613.60,892.00"/>
        <lane id=":n_1_0_19_1" index="1" speed="13.89" length="27.20" shape="586.40,895.20 613.60,895.20"/>
        <lane id=":n_1_0_19_2" index="2" speed="13.89" length="27.20" shape="586.40,898.40 613.60,898.40"/>
    </edge>
    <edge id=":n_1_0_22" function="internal">
        <lane id=":n_1_0_22_0" index="0" speed="10.36" length="24.51" shape="586.40,898.40 593.05,899.35 597.80,902.20 600.65,906.95 601.60,913.60"/>
    </edge>
    <edge id=":n_1_0_23" function="internal">
        <lane id=":n_1_0_23_0" index="0" speed="3.65" length="2.34" shape="586.40,898.40 587.60,899.20 588.00,900.00"/>
    </edge>
    <edge id=":n_1_0_24" function="internal">
        <lane id=":n_1_0_24_0" index="0" speed="3.65" length="2.34" shape="588.00,900.00 587.60,900.80 586.40,901.60"/>
    </edge>
    <edge id=":n_1_1_0" function="internal">
        <lane id=":n_1_1_0_0" index="0" speed="6.51" length="9.03" shape="592.00,613.60 591.65,611.15 590.60,609.40 588.85,608.35 586.40,608.00"/>
    </edge>
    <edge id=":n_1_1_1" function="internal">
        <lane id=":n_1_1_1_0" index="0" speed="13.89" length="27.20" shape="592.00,613.60 592.00,586.40"/>
        <lane id=":n_1_1_1_1" index="1" speed="13.89" length="27.20" shape="595.20,613.60 595.20,586.40"/>
        <lane id=":n_1_1_1_2" index="2" speed="13.89" length="27.20" shape="598.40,613.60 598.40,586.40"/>
    </edge>
    <edge id=":n_1_1_4" function="internal">
        <lane id=":n_1_1_4_0" index="0" speed="10.36" length="24.51" shape="598.40,613.60 599.35,606.95 602.20,602.20 606.95,599.35 613.60,598.40"/>
    </edge>
    <edge id=":n_1_1_5" function="internal">
        <lane id=":n_1_1_5_0" index="0" speed="3.65" length="4.67" shape="598.40,613.60 599.20,612.40 600.00,612.00 600.80,612.40 601.60,613.60"/>
    </edge>
    <edge id=":n_1_1_6" function="internal">
        <lane id=":n_1_1_6_0" index="0" speed="6.51" length="9.03" shape="613.60,608.00 611.15,608.35 609.40,609.40 608.35,611.15 608.00,613.60"/>
    </edge>
    <edge id=":n_1_1_7" function="internal">
        <lane id=":n_1_1_7_0" index="0" speed="13.89" length="27.20" shape="613.60,608.00 586.40,608.00"/>
        <lane id=":n_1_1_7_1" index="1" speed="13.89" length="27.20" shape="613.60,604.80 586.40,604.80"/>
        <lane id=":n_1_1_7_2" index="2" speed="13.89" length="27.20" shape="613.60,601.60 586.40,601.60"/>
    </edge>
    <edge id=":n_1_1_10" function="internal">
        <lane id=":n_1_1_10_0" index="0" speed="10.36" length="24.51" shape="613.60,601.60 606.95,600.65 602.20,597.80 599.35,593.05 598.40,586.40"/>
    </edge>
    <edge id=":n_1_1_11" function="internal">
        <lane id=":n_1_1_11_0" index="0" speed="3.65" length="4.67" shape="613.60,601.60 612.40,600.80 612.00,600.00 612.40,599.20 613.60,598.40"/>
    </edge>
    <edge id=":n_1_1_12" function="internal">
        <lane id=":n_1_1_12_0" index="0" speed="6.51" length="9.03" shape="608.00,586.40 608.35,588.85 609.40,590.60 611.15,591.65 613.60,592.00"/>
    </edge>
    <edge id=":n_1_1_13" function="internal">
        <lane id=":n_1_1_13_0" index="0" speed="13.89" length="27.20" shape="608.00,586.40 608.00,613.60"/>
        <lane id=":n_1_1_13_1" index="1" speed="13.89" length="27.20" shape="604.80,586.40 604.80,613.60"/>
        <lane id=":n_1_1_13_2" index="2" speed="13.89" length="27.20" shape="601.60,586.40 601.60,613.60"/>
    </edge>
    <edge id=":n_1_1_16" function="internal">
        <lane id=":n_1_1_16_0" index="0" speed="10.36" length="24.51" shape="601.60,586.40 600.65,593.05 597.80,597.80 593.05,600.65 586.40,601.60"/>
    </edge>
    <edge id=":n_1_1_17" function="internal">
        <lane id=":n_1_1_17_0" index="0" speed="3.65" length="4.67" shape="601.60,586.40 600.80,587.60 600.00,588.00 599.20,587.60 598.40,586.40"/>
    </edge>
    <edge id=":n_1_1_18" function="internal">
        <lane id=":n_1_1_18_0" index="0" speed="6.51" length="9.03" shape="586.40,592.00 588.85,591.65 590.60,590.60 591.65,588.85 592.00,586.40"/>
    </edge>
    <edge id=":n_1_1_19" function="internal">
        <lane id=":n_1_1_19_0" index="0" speed="13.89" length="27.20" shape="586.40,592.00 613.60,592.00"/>
        <lane id=":n_1_1_19_1" index="1" speed="13.89" length="27.20" shape="586.40,595.20 613.60,595.20"/>
        <lane id=":n_1_1_19_2" index="2" speed="13.89" length="27.20" shape="586.40,598.40 613.60,598.40"/>
    </edge>
    <edge id=":n_1_1_22" function="internal">
        <lane id=":n_1_1_22_0" index="0" speed="10.36" length="24.51" shape="586.40,598.40 593.05,599.35 597.80,602.20 600.65,606.95 601.60,613.60"/>
    </edge>
    <edge id=":n_1_1_23" function="internal">
        <lane id=":n_1_1_23_0" index="0" speed="3.65" length="2.34" shape="586.40,598.40 587.60,599.20 588.00,600.00"/>
    </edge>
    <edge id=":n_1_1_24" function="internal">
        <lane id=":n_1_1_24_0" index="0" speed="3.65" length="2.34" shape="588.00,600.00 587.60,600.80 586.40,601.60"/>
    </edge>
    <edge id=":n_1_2_0" function="internal">
        <lane id=":n_1_2_0_0" index="0" speed="6.51" length="9.03" shape="592.00,313.60 591.65,311.15 590.60,309.40 588.85,308.35 586.40,308.00"/>
    </edge>
    <edge id=":n_1_2_1" function="internal">
        <lane id=":n_1_2_1_0" index="0" speed="13.89" length="27.20" shape="592.00,313.60 592.00,286.40"/>
        <lane id=":n_1_2_1_1" index="1" speed="13.89" length="27.20" shape="595.20,313.60 595.20,286.40"/>
        <lane id=":n_1_2_1_2" index="2" speed="13.89" length="27.20" shape="598.40,313.60 598.40,286.40"/>
    </edge>
    <edge id=":n_1_2_4" function="internal">
        <lane id=":n_1_2_4_0" index="0" speed="10.36" length="24.51" shape="598.40,313.60 599.35,306.95 602.20,302.20 606.95,299.35 613.60,298.40"/>
    </edge>
    <edge id=":n_1_2_5" function="internal">
        <lane id=":n_1_2_5_0" index="0" speed="3.65" length="4.67" shape="598.40,313.60 599.20,312.40 600.00,312.00 600.80,312.40 601.60,313.60"/>
    </edge>
    <edge id=":n_1_2_6" function="internal">
        <lane id=":n_1_2_6_0" index="0" speed="6.51" length="9.03" shape="613.60,308.00 611.15,308.35 609.40,309.40 608.35,311.15 608.00,313.60"/>
    </edge>
    <edge id=":n_1_2_7" function="internal">
        <lane id=":n_1_2_7_0" index="0" speed="13.89" length="27.20" shape="613.60,308.00 586.40,308.00"/>
        <lane id=":n_1_2_7_1" index="1" speed="13.89" length="27.20" shape="613.60,304.80 586.40,304.80"/>
        <lane id=":n_1_2_7_2" index="2" speed="13.89" length="27.20" shape="613.60,301.60 586.40,301.60"/>
    </edge>
    <edge id=":n_1_2_10" function="internal">
        <lane id=":n_1_2_10_0" index="0" speed="10.36" length="24.51" shape="613.60,301.60 606.95,300.65 602.20,297.80 599.35,293.05 598.40,286.40"/>
    </edge>
    <edge id=":n_1_2_11" function="internal">
        <lane id=":n_1_2_11_0" index="0" speed="3.65" length="4.67" shape="613.60,301.60 612.40,300.80 612.00,300.00 612.40,299.20 613.60,298.40"/>
    </edge>
    <edge id=":n_1_2_12" function="internal">
        <lane id=":n_1_2_12_0" index="0" speed="6.51" length="9.03" shape="608.00,286.40 608.35,288.85 609.40,290.60 611.15,291.65 613.60,292.00"/>
    </edge>
    <edge id=":n_1_2_13" function="internal">
        <lane id=":n_1_2_13_0" index="0" speed="13.89" length="27.20" shape="608.00,286.40 608.00,313.60"/>
        <lane id=":n_1_2_13_1" index="1" speed="13.89" length="27.20" shape="604.80,286.40 604.80,313.60"/>
        <lane id=":n_1_2_13_2" index="2" speed="13.89" length="27.20" shape="601.60,286.40 601.60,313.60"/>
    </edge>
    <edge id=":n_1_2_16" function="internal">
        <lane id=":n_1_2_16_0" index="0" speed="10.36" length="24.51" shape="601.60,286.40 600.65,293.05 597.80,297.80 593.05,300.65 586.40,301.60"/>
    </edge>
    <edge id=":n_1_2_17" function="internal">
        <lane id=":n_1_2_17_0" index="0" speed="3.65" length="4.67" shape="601.60,286.40 600.80,287.60 600.00,288.00 599.20,287.60 598.40,286.40"/>
    </edge>
    <edge id=":n_1_2_18" function="internal">
        <lane id=":n_1_2_18_0" index="0" speed="6.51" length="9.03" shape="586.40,292.00 588.85,291.65 590.60,290.60 591.65,288.85 592.00,286.40"/>
    </edge>
    <edge id=":n_1_2_19" function="internal">
        <lane id=":n_1_2_19_0" index="0" speed="13.89" length="27.20" shape="586.40,292.00 613.60,292.00"/>
        <lane id=":n_1_2_19_1" index="1" speed="13.89" length="27.20" shape="586.40,295.20 613.60,295.20"/>
        <lane id=":n_1_2_19_2" index="2" speed="13.89" length="27.20" shape="586.40,298.40 613.60,298.40"/>
    </edge>
    <edge id=":n_1_2_22" function="internal">
        <lane id=":n_1_2_22_0" index="0" speed="10.36" length="24.51" shape="586.40,298.40 593.05,299.35 597.80,302.20 600.65,306.95 601.60,313.60"/>
    </edge>
    <edge id=":n_1_2_23" function="internal">
        <lane id=":n_1_2_23_0" index="0" speed="3.65" length="2.34" shape="586.40,298.40 587.60,299.20 588.00,300.00"/>
    </edge>
    <edge id=":n_1_2_24" function="internal">
        <lane id=":n_1_2_24_0" index="0" speed="3.65" length="2.34" shape="588.00,300.00 587.60,300.80 586.40,301.60"/>
    </edge>
    <edge id=":n_1_d_0" function="internal">
        <lane id=":n_1_d_0_0" index="0" speed="3.65" length="4.67" shape="598.40,0.00 599.20,-1.20 600.00,-1.60 600.80,-1.20 601.60,0.00"/>
    </edge>
    <edge id=":n_1_l_0" function="internal">
        <lane id=":n_1_l_0_0" index="0" speed="3.65" length="4.67" shape="0.00,601.60 -1.20,600.80 -1.60,600.00 -1.20,599.20 0.00,598.40"/>
    </edge>
    <edge id=":n_1_r_0" function="internal">
        <lane id=":n_1_r_0_0" index="0" speed="3.65" length="4.67" shape="1200.00,598.40 1201.20,599.20 1201.60,600.00 1201.20,600.80 1200.00,601.60"/>
    </edge>
    <edge id=":n_1_u_0" function="internal">
        <lane id=":n_1_u_0_0" index="0" speed="3.65" length="4.67" shape="601.60,1200.00 600.80,1201.20 600.00,1201.60 599.20,1201.20 598.40,1200.00"/>
    </edge>
    <edge id=":n_2_0_0" function="internal">
        <lane id=":n_2_0_0_0" index="0" speed="6.51" length="9.03" shape="892.00,913.60 891.65,911.15 890.60,909.40 888.85,908.35 886.40,908.00"/>
    </edge>
    <edge id=":n_2_0_1" function="internal">
        <lane id=":n_2_0_1_0" index="0" speed="13.89" length="27.20" shape="892.00,913.60 892.00,886.40"/>
        <lane id=":n_2_0_1_1" index="1" speed="13.89" length="27.20" shape="895.20,913.60 895.20,886.40"/>
        <lane id=":n_2_0_1_2" index="2" speed="13.89" length="27.20" shape="898.40,913.60 898.40,886.40"/>
    </edge>
    <edge id=":n_2_0_4" function="internal">
        <lane id=":n_2_0_4_0" index="0" speed="10.36" length="24.51" shape="898.40,913.60 899.35,906.95 902.20,902.20 906.95,899.35 913.60,898.40"/>
    </edge>
    <edge id=":n_2_0_5" function="internal">
        <lane id=":n_2_0_5_0" index="0" speed="3.65" length="4.67" shape="898.40,913.60 899.20,912.40 900.00,912.00 900.80,912.40 901.60,913.60"/>
    </edge>
    <edge id=":n_2_0_6" function="internal">
        <lane id=":n_2_0_6_0" index="0" speed="6.51" length="9.03" shape="913.60,908.00 911.15,908.35 909.40,909.40 908.35,911.15 908.00,913.60"/>
    </edge>
    <edge id=":n_2_0_7" function="internal">
        <lane id=":n_2_0_7_0" index="0" speed="13.89" length="27.20" shape="913.60,908.00 886.40,908.00"/>
        <lane id=":n_2_0_7_1" index="1" speed="13.89" length="27.20" shape="913.60,904.80 886.40,904.80"/>
        <lane id=":n_2_0_7_2" index="2" speed="13.89" length="27.20" shape="913.60,901.60 886.40,901.60"/>
    </edge>
    <edge id=":n_2_0_10" function="internal">
        <lane id=":n_2_0_10_0" index="0" speed="10.36" length="24.51" shape="913.60,901.60 906.95,900.65 902.20,897.80 899.35,893.05 898.40,886.40"/>
    </edge>
    <edge id=":n_2_0_11" function="internal">
        <lane id=":n_2_0_11_0" index="0" speed="3.65" length="4.67" shape="913.60,901.60 912.40,900.80 912.00,900.00 912.40,899.20 913.60,898.40"/>
    </edge>
    <edge id=":n_2_0_12" function="internal">
        <lane id=":n_2_0_12_0" index="0" speed="6.51" length="9.03" shape="908.00,886.40 908.35,888.85 909.40,890.60 911.15,891.65 913.60,892.00"/>
    </edge>
    <edge id=":n_2_0_13" function="internal">
        <lane id=":n_2_0_13_0" index="0" speed="13.89" length="27.20" shape="908.00,886.40 908.00,913.60"/>