<?xml version='1.0' encoding='UTF-8'?>
<routes>
    <flow from="n_0_l_to_n_0_0" to="n_2_0_to_n_0_r" id="n_0_l" begin="0" end="3600" probability="0.388" reroute="false" departPos="base" departLane="best"/>
    <flow from="n_0_r_to_n_2_0" to="n_0_0_to_n_0_l" id="n_0_r" begin="0" end="3600" probability="0.388" reroute="false" departPos="base" departLane="best"/>
    <flow from="n_0_u_to_n_0_0" to="n_0_2_to_n_0_d" id="n_0_u" begin="0" end="3600" probability="0.133" reroute="false" departPos="base" departLane="best"/>
    <flow from="n_0_d_to_n_0_2" to="n_0_0_to_n_0_u" id="n_0_d" begin="0" end="3600" probability="0.133" reroute="false" departPos="base" departLane="best"/>
    <flow from="n_1_l_to_n_0_1" to="n_2_1_to_n_1_r" id="n_1_l" begin="0" end="3600" probability="0.388" reroute="false" departPos="base" departLane="best"/>
    <flow from="n_1_r_to_n_2_1" to="n_0_1_to_n_1_l" id="n_1_r" begin="0" end="3600" probability="0.388" reroute="false" departPos="base" departLane="best"/>
    <flow from="n_1_u_to_n_1_0" to="n_1_2_to_n_1_d" id="n_1_u" begin="0" end="3600" probability="0.133" reroute="false" departPos="base" departLane="best"/>
    <flow from="n_1_d_to_n_1_2" to="n_1_0_to_n_1_u" id="n_1_d" begin="0" end="3600" probability="0.133" reroute="false" departPos="base" departLane="best"/>
    <flow from="n_2_l_to_n_0_2" to="n_2_2_to_n_2_r" id="n_2_l" begin="0" end="3600" probability="0.388" reroute="false" departPos="base" departLane="best"/>
    <flow from="n_2_r_to_n_2_2" to="n_0_2_to_n_2_l" id="n_2_r" begin="0" end="3600" probability="0.388" reroute="false" departPos="base" departLane="best"/>
    <flow from="n_2_u_to_n_2_0" to="n_2_2_to_n_2_d" id="n_2_u" begin="0" end="3600" probability="0.133" reroute="false" departPos="base" departLane="best"/>
    <flow from="n_2_d_to_n_2_2" to="n_2_0_to_n_2_u" id="n_2_d" begin="0" end="3600" probability="0.133" reroute="false" departPos="base" departLane="best"/>
    </routes>
    
