<additional>
  <tlLogic id="564101963" offset="16" programID="1" type="static">
    <phase duration="36" state="rrrrrrGGGgrrrrrgrrr" minDur="32" maxDur="60"/>
    <phase duration="3" state="rrrrrryyyyrrrrrgrrr"/>
    <phase duration="40" state="grrrrrrrrrGGGGggrrr" minDur="29" maxDur="65"/>
    <phase duration="3" state="yrrrrrrrrryyyyyyrrr"/>
    <phase duration="36" state="rGGGGgrrrgrrrrrrrrr" minDur="26" maxDur="60"/>
    <phase duration="3" state="ryyyygrrryrrrrrrrrr"/>
    <phase duration="36" state="grrrrgrrrrrrrrgrGGG" minDur="32" maxDur="60"/>
    <phase duration="3" state="yrrrryrrrrrrrryryyy"/>
  </tlLogic>
  <tlLogic id="564101957" offset="140" programID="1" type="static">
    <phase duration="37" state="rrrrrgrGGGgrrrrrgrrr" minDur="33" maxDur="60"/>
    <phase duration="3" state="rrrrryryyyyrrrrrgrrr"/>
    <phase duration="39" state="grrrrrrrrrrGGGGggrrr" minDur="34" maxDur="65"/>
    <phase duration="3" state="yrrrrrrrrrryyyyyyrrr"/>
    <phase duration="38" state="rGGGGggrrrgrrrrrrrrr" minDur="28" maxDur="65"/>
    <phase duration="3" state="ryyyyygrrryrrrrrrrrr"/>
    <phase duration="34" state="grrrrrgrrrrrrrrgrGGG" minDur="30" maxDur="55"/>
    <phase duration="3" state="yrrrrryrrrrrrrryryyy"/>
  </tlLogic>
  <tlLogic id="564101807" offset="0" programID="1" type="static">
    <phase duration="31" state="rrrrrgrGGGgrrrrgrrr" minDur="27" maxDur="65"/>
    <phase duration="3" state="rrrrryryyyyrrrrgrrr"/>
    <phase duration="37" state="grrrrrrrrrrGGGGgrrr" minDur="28" maxDur="60"/>
    <phase duration="3" state="grrrrrrrrrryyyyyrrr"/>
    <phase duration="40" state="grrrrrgrrrrrrrrrGGG" minDur="32" maxDur="50"/>
    <phase duration="3" state="yrrrrrgrrrrrrrrryyy"/>
    <phase duration="40" state="rGGGGggrrrgrrrrrrrr" minDur="26" maxDur="65"/>
    <phase duration="3" state="ryyyygyrrrgrrrrrrrr"/>
  </tlLogic>
  <tlLogic id="564101606" offset="146" programID="1" type="static">
    <phase duration="37" state="grrrrrgrrrrrrrrrgrGGG" minDur="33" maxDur="60"/>
    <phase duration="3" state="grrrrryrrrrrrrrrgryyy"/>
    <phase duration="36" state="grrrrrrrrrgrGGGGggrrr" minDur="32" maxDur="60"/>
    <phase duration="3" state="yrrrrrrrrrgryyyyygrrr"/>
    <phase duration="39" state="rrrrrgrGGGggrrrrrgrrr" minDur="35" maxDur="65"/>
    <phase duration="3" state="rrrrrgryyyygrrrrryrrr"/>
    <phase duration="36" state="rGGGGggrrrrgrrrrrrrrr" minDur="30" maxDur="60"/>
    <phase duration="3" state="ryyyyygrrrryrrrrrrrrr"/>
  </tlLogic>
  <tlLogic id="564101611" offset="108" programID="1" type="static">
    <phase duration="37" state="grrrrgrrrrrrrrgrGGG" minDur="33" maxDur="60"/>
    <phase duration="3" state="grrrryrrrrrrrrgryyy"/>
    <phase duration="36" state="grrrrrrrrrGGGGggrrr" minDur="32" maxDur="60"/>
    <phase duration="3" state="yrrrrrrrrryyyyygrrr"/>
    <phase duration="39" state="rrrrrrGGGgrrrrrgrrr" minDur="35" maxDur="65"/>
    <phase duration="3" state="rrrrrryyygrrrrryrrr"/>
    <phase duration="36" state="rGGGGgrrrgrrrrrrrrr" minDur="32" maxDur="60"/>
    <phase duration="3" state="ryyyygrrryrrrrrrrrr"/>
  </tlLogic>
  <tlLogic id="564101397" offset="126" programID="1" type="static">
    <phase duration="37" state="rGGGGggrrrgrrrrrrrrr" minDur="29" maxDur="54"/>
    <phase duration="3" state="ryyyyyyrrryrrrrrrrrr"/>
    <phase duration="40" state="grrrrrrrrgrGGGGggrrr" minDur="33" maxDur="59"/>
    <phase duration="3" state="yrrrrrrrrgryyyyygrrr"/>
    <phase duration="38" state="rrrrrgrGGggrrrrrgrrr" minDur="31" maxDur="59"/>
    <phase duration="3" state="rrrrryryyyyrrrrryrrr"/>
    <phase duration="33" state="grrrrrgrrrrrrrrgrGGG" minDur="26" maxDur="49"/>
    <phase duration="3" state="yrrrrrgrrrrrrrryryyy"/>
  </tlLogic>
  <tlLogic id="564106340" offset="88" programID="1" type="static">
    <phase duration="37" state="rGGGGggrrrrrgrrrrrrrrrrg" minDur="33" maxDur="57"/>
    <phase duration="3" state="ryyyyyyrrrrryrrrrrrrrrry"/>
    <phase duration="37" state="grrrrrrrrrrgrGGGGggrrrrr" minDur="33" maxDur="57"/>
    <phase duration="3" state="yrrrrrrrrrrgryyyyygrrrrr"/>
    <phase duration="36" state="rrrrrgrGGGGggrrrrrgrrrrr" minDur="32" maxDur="57"/>
    <phase duration="3" state="rrrrryryyyyyyrrrrryrrrrr"/>
    <phase duration="38" state="grrrrrgrrrrrrrrrrgrGGGGg" minDur="34" maxDur="57"/>
    <phase duration="3" state="yrrrrrgrrrrrrrrrryryyyyg"/>
  </tlLogic>
  <tlLogic id="564104606" type="static" programID="5" offset="113">
    <phase duration="37" state="rGGGGgrrrrrgrrrrrrrrrg" minDur="33" maxDur="77"/>
    <phase duration="3"  state="ryyyyyrrrrryrrrrrrrrry"/>
    <phase duration="34" state="grrrrrrrrrgrGGGGgrrrrr" minDur="30" maxDur="47"/>
    <phase duration="3"  state="yrrrrrrrrrgryyyygrrrrr"/>
    <phase duration="30" state="rrrrrrGGGGggrrrrgrrrrr" minDur="26" maxDur="47"/>
    <phase duration="3"  state="rrrrrryyyyyyrrrryrrrrr"/>
    <phase duration="27" state="grrrrgrrrrrrrrrrrGGGGg" minDur="23" maxDur="47"/>
    <phase duration="3"  state="yrrrrgrrrrrrrrrrryyyyg"/>
  </tlLogic>
  <tlLogic id="564101798" offset="123" programID="1" type="static">
    <phase duration="37" state="rrrrrGGGgrrrrrgrrr" minDur="32" maxDur="60"/>
    <phase duration="3" state="rrrrryyyyrrrrrgrrr"/>
    <phase duration="39" state="grrrrrrrrGGGGggrrr" minDur="29" maxDur="65"/>
    <phase duration="3" state="grrrrrrrryyyygyrrr"/>
    <phase duration="31" state="grrrgrrrrrrrrgrGGG" minDur="27" maxDur="55"/>
    <phase duration="3" state="yrrrgrrrrrrrryryyy"/>
    <phase duration="41" state="rGGGgrrrgrrrrrrrrr" minDur="30" maxDur="70"/>
    <phase duration="3" state="ryyyyrrrgrrrrrrrrr"/>
  </tlLogic>
  <tlLogic id="564101792" type="static" programID="5" offset="7">
    <phase duration="27" state="grrrrgrrrrrrrrgrGGG" minDur="23" maxDur="75"/>
    <phase duration="3"  state="grrrryrrrrrrrrgryyy"/>
    <phase duration="39" state="grrrrrrrrrGGGGggrrr" minDur="26" maxDur="75"/>
    <phase duration="3"  state="yrrrrrrrrryyyyggrrr"/>
    <phase duration="27" state="rrrrrrGGGgrrrrggrrr" minDur="23" maxDur="75"/>
    <phase duration="3"  state="rrrrrryyygrrrryyrrr"/>
    <phase duration="35" state="rGGGGgrrrgrrrrrrrrr" minDur="26" maxDur="75"/>
    <phase duration="3"  state="ryyyygrrryrrrrrrrrr"/>
  </tlLogic>
</additional>
