<additional>
  <tlLogic id="564101963" offset="16" programID="1" type="static">
    <phase duration="36" state="rrrrrrGGGgrrrrrgrrr" minDur="33" maxDur="60"/>
    <phase duration="3" state="rrrrrryyyyrrrrrgrrr"/>
    <phase duration="40" state="grrrrrrrrrGGGGggrrr" minDur="29" maxDur="65"/>
    <phase duration="3" state="yrrrrrrrrryyyyyyrrr"/>
    <phase duration="36" state="rGGGGgrrrgrrrrrrrrr" minDur="26" maxDur="60"/>
    <phase duration="3" state="ryyyygrrryrrrrrrrrr"/>
    <phase duration="36" state="grrrrgrrrrrrrrgrGGG" minDur="33" maxDur="60"/>
    <phase duration="3" state="yrrrryrrrrrrrryryyy"/>
  </tlLogic>
  <tlLogic id="564101957" offset="140" programID="1" type="static">
    <phase duration="37" state="rrrrrgrGGGgrrrrrgrrr" minDur="37" maxDur="60"/>
    <phase duration="3" state="rrrrryryyyyrrrrrgrrr"/>
    <phase duration="39" state="grrrrrrrrrrGGGGggrrr" minDur="34" maxDur="65"/>
    <phase duration="3" state="yrrrrrrrrrryyyyyyrrr"/>
    <phase duration="38" state="rGGGGggrrrgrrrrrrrrr" minDur="28" maxDur="65"/>
    <phase duration="3" state="ryyyyygrrryrrrrrrrrr"/>
    <phase duration="34" state="grrrrrgrrrrrrrrgrGGG" minDur="34" maxDur="55"/>
    <phase duration="3" state="yrrrrryrrrrrrrryryyy"/>
  </tlLogic>
  <tlLogic id="564101807" offset="0" programID="1" type="static">
    <phase duration="31" state="rrrrrgrGGGgrrrrgrrr" minDur="31" maxDur="65"/>
    <phase duration="3" state="rrrrryryyyyrrrrgrrr"/>
    <phase duration="37" state="grrrrrrrrrrGGGGgrrr" minDur="28" maxDur="60"/>
    <phase duration="3" state="grrrrrrrrrryyyyyrrr"/>
    <phase duration="40" state="grrrrrgrrrrrrrrrGGG" minDur="32" maxDur="50"/>
    <phase duration="3" state="yrrrrrgrrrrrrrrryyy"/>
    <phase duration="40" state="rGGGGggrrrgrrrrrrrr" minDur="26" maxDur="65"/>
    <phase duration="3" state="ryyyygyrrrgrrrrrrrr"/>
  </tlLogic>
  <tlLogic id="564101798" offset="123" programID="1" type="static">
    <phase duration="37" state="rrrrrGGGgrrrrrgrrr" minDur="32" maxDur="60"/>
    <phase duration="3" state="rrrrryyyyrrrrrgrrr"/>
    <phase duration="39" state="grrrrrrrrGGGGggrrr" minDur="29" maxDur="65"/>
    <phase duration="3" state="grrrrrrrryyyygyrrr"/>
    <phase duration="31" state="grrrgrrrrrrrrgrGGG" minDur="31" maxDur="55"/>
    <phase duration="3" state="yrrrgrrrrrrrryryyy"/>
    <phase duration="41" state="rGGGgrrrgrrrrrrrrr" minDur="30" maxDur="70"/>
    <phase duration="3" state="ryyyyrrrgrrrrrrrrr"/>
  </tlLogic>
  <tlLogic id="564101606" offset="146" programID="1" type="static">
    <phase duration="37" state="grrrrrgrrrrrrrrrgrGGG" minDur="35" maxDur="60"/>
    <phase duration="3" state="grrrrryrrrrrrrrrgryyy"/>
    <phase duration="36" state="grrrrrrrrrgrGGGGggrrr" minDur="34" maxDur="60"/>
    <phase duration="3" state="yrrrrrrrrrgryyyyygrrr"/>
    <phase duration="39" state="rrrrrgrGGGggrrrrrgrrr" minDur="35" maxDur="65"/>
    <phase duration="3" state="rrrrrgryyyygrrrrryrrr"/>
    <phase duration="36" state="rGGGGggrrrrgrrrrrrrrr" minDur="30" maxDur="60"/>
    <phase duration="3" state="ryyyyygrrrryrrrrrrrrr"/>
  </tlLogic>
  <tlLogic id="564101611" offset="108" programID="1" type="static">
    <phase duration="37" state="grrrrgrrrrrrrrgrGGG" minDur="36" maxDur="60"/>
    <phase duration="3" state="grrrryrrrrrrrrgryyy"/>
    <phase duration="36" state="grrrrrrrrrGGGGggrrr" minDur="33" maxDur="60"/>
    <phase duration="3" state="yrrrrrrrrryyyyygrrr"/>
    <phase duration="39" state="rrrrrrGGGgrrrrrgrrr" minDur="38" maxDur="65"/>
    <phase duration="3" state="rrrrrryyygrrrrryrrr"/>
    <phase duration="36" state="rGGGGgrrrgrrrrrrrrr" minDur="33" maxDur="60"/>
    <phase duration="3" state="ryyyygrrryrrrrrrrrr"/>
  </tlLogic>
  <tlLogic id="cluster_564101609_564101610_564103167_564103168_564106382" offset="94" programID="1" type="static">
    <phase duration="24" state="gGGggrrrr" minDur="24" maxDur="40"/>
    <phase duration="3" state="yyyggrrrr"/>
    <phase duration="50" state="rrrggGGGG" minDur="42" maxDur="80"/>
    <phase duration="3" state="rrrggyyyy"/>
    <phase duration="24" state="gGGggrrrr" minDur="24" maxDur="40"/>
    <phase duration="3" state="yyyggrrrr"/>
    <phase duration="50" state="rrrggGGGG" minDur="42" maxDur="80"/>
    <phase duration="3" state="rrrggyyyy"/>
  </tlLogic>
  <tlLogic id="564101397" offset="126" programID="1" type="static">
    <phase duration="34" state="rGGGGggrrrgrrrrrrrrr" minDur="23" maxDur="54"/>
    <phase duration="3" state="ryyyyyyrrryrrrrrrrrr"/>
    <phase duration="37" state="grrrrrrrrgrGGGGggrrr" minDur="34" maxDur="59"/>
    <phase duration="3" state="yrrrrrrrrgryyyyygrrr"/>
    <phase duration="35" state="rrrrrgrGGggrrrrrgrrr" minDur="31" maxDur="59"/>
    <phase duration="3" state="rrrrryryyyyrrrrryrrr"/>
    <phase duration="30" state="grrrrrgrrrrrrrrgrGGG" minDur="27" maxDur="49"/>
    <phase duration="3" state="yrrrrrgrrrrrrrryryyy"/>
  </tlLogic>
  <tlLogic id="564106340" offset="88" programID="1" type="static">
    <phase duration="37" state="rGGGGggrrrrrgrrrrrrrrrrg" minDur="36" maxDur="57"/>
    <phase duration="3" state="ryyyyyyrrrrryrrrrrrrrrry"/>
    <phase duration="37" state="grrrrrrrrrrgrGGGGggrrrrr" minDur="37" maxDur="57"/>
    <phase duration="3" state="yrrrrrrrrrrgryyyyygrrrrr"/>
    <phase duration="36" state="rrrrrgrGGGGggrrrrrgrrrrr" minDur="36" maxDur="57"/>
    <phase duration="3" state="rrrrryryyyyyyrrrrryrrrrr"/>
    <phase duration="38" state="grrrrrgrrrrrrrrrrgrGGGGg" minDur="37" maxDur="57"/>
    <phase duration="3" state="yrrrrrgrrrrrrrrrryryyyyg"/>
  </tlLogic>
  <tlLogic id="564106449" type="static" programID="1" offset="111">
    <phase state="rGGgrrrrrrg" duration="51" minDur="33" maxDur="77"/>
    <phase state="ryyyrrrrrry" duration="3"/>
    <phase state="grrrrrgrGGr" duration="51" minDur="36" maxDur="77"/>
    <phase state="yrrrrrgryyr" duration="3"/>
    <phase state="rrrrGGggrrr" duration="49" minDur="34" maxDur="77"/>
    <phase state="rrrryyyyrrr" duration="3"/>
  </tlLogic>
  <tlLogic id="564101605" type="static" programID="5" offset="133">
    <phase duration="36" state="rGGGGggrrrgrrrrrrrr" minDur="29" maxDur="75"/>
    <phase duration="3"  state="ryyyyyyrrryrrrrrrrr"/>
    <phase duration="32" state="grrrrrrrrrrGGGGgrrr" minDur="27" maxDur="65"/>
    <phase duration="3"  state="yrrrrrrrrrryyyygrrr"/>
    <phase duration="30" state="rrrrrgrGGGgrrrrgrrr" minDur="30" maxDur="50"/>
    <phase duration="3"  state="rrrrryryyyyrrrryrrr"/>
    <phase duration="30" state="grrrrrgrrrrrrrrrGGG" minDur="30" maxDur="50"/>
    <phase duration="3"  state="yrrrrrgrrrrrrrrryyy"/>
  </tlLogic>
  <tlLogic id="564101792" type="static" programID="5" offset="7">
    <phase duration="27" state="grrrrgrrrrrrrrgrGGG" minDur="27" maxDur="75"/>
    <phase duration="3"  state="grrrryrrrrrrrrgryyy"/>
    <phase duration="39" state="grrrrrrrrrGGGGggrrr" minDur="26" maxDur="75"/>
    <phase duration="3"  state="yrrrrrrrrryyyyggrrr"/>
    <phase duration="27" state="rrrrrrGGGgrrrrggrrr" minDur="27" maxDur="75"/>
    <phase duration="3"  state="rrrrrryyygrrrryyrrr"/>
    <phase duration="35" state="rGGGGgrrrgrrrrrrrrr" minDur="26" maxDur="75"/>
    <phase duration="3"  state="ryyyygrrryrrrrrrrrr"/>
  </tlLogic>
  <tlLogic id="564102232" type="static" programID="5" offset="0">
    <phase duration="30" state="grrrrgrrrrrrrrGGGg" minDur="28" maxDur="57"/>
    <phase duration="3"  state="yrrrrgrrrrrrrryyyg"/>
    <phase duration="35" state="rGGGggrrrgrrrrrrrg" minDur="35" maxDur="67"/>
    <phase duration="3"  state="ryyygyrrrgrrrrrrry"/>
    <phase duration="34" state="rrrrgrGGGgrrrgrrrr" minDur="32" maxDur="67"/>
    <phase duration="3"  state="rrrryryyyyrrrgrrrr"/>
    <phase duration="29" state="grrrrrrrrrGGGgrrrr" minDur="26" maxDur="52"/>
    <phase duration="3"  state="grrrrrrrrryyyyrrrr"/>
  </tlLogic>  
  <tlLogic id="564102246" type="static" programID="1" offset="40">
    <phase duration="30" state="rGGGgrrrrgrrrrr" minDur="29" maxDur="47"/>
    <phase duration="3"  state="ryyyyrrrrgrrrrr"/>
    <phase duration="24" state="rrrrrGGGggrrgrr" minDur="24" maxDur="47"/>
    <phase duration="3"  state="rrrrryyygyrrgrr"/>
    <phase duration="30" state="grrrrrrrgrGGgrr" minDur="29" maxDur="47"/>
    <phase duration="3"  state="grrrrrrryryyyrr"/>
    <phase duration="24" state="grrrgrrrrrrrrGG" minDur="24" maxDur="47"/>
    <phase duration="3"  state="yrrrgrrrrrrrryy"/>
  </tlLogic>
  <tlLogic id="564104606" type="static" programID="5" offset="113">
    <phase duration="37" state="rGGGGgrrrrrgrrrrrrrrrg" minDur="34" maxDur="77"/>
    <phase duration="3"  state="ryyyyyrrrrryrrrrrrrrry"/>
    <phase duration="34" state="grrrrrrrrrgrGGGGgrrrrr" minDur="31" maxDur="47"/>
    <phase duration="3"  state="yrrrrrrrrrgryyyygrrrrr"/>
    <phase duration="30" state="rrrrrrGGGGggrrrrgrrrrr" minDur="30" maxDur="47"/>
    <phase duration="3"  state="rrrrrryyyyyyrrrryrrrrr"/>
    <phase duration="27" state="grrrrgrrrrrrrrrrrGGGGg" minDur="27" maxDur="47"/>
    <phase duration="3"  state="yrrrrgrrrrrrrrrrryyyyg"/>
  </tlLogic>
  <tlLogic id="564105893" type="static" programID="3" offset="8">
    <phase duration="17" state="grrrgrrrGgrrrrgrrrG" minDur="15" maxDur="47"/>
    <phase duration="3"  state="yrrryrrryyrrrryrrry"/>
    <phase duration="64" state="rrrrrGGGrrrrrrrGGGr" minDur="38" maxDur="117"/>
    <phase duration="3"  state="rrrrryyyrrrrrrryyyr"/>
    <phase duration="15" state="grrrrrrrrrGGGGgrrrr" minDur="15" maxDur="37"/>
    <phase duration="3"  state="yrrrrrrrrrgggyyrrrr"/>
    <phase duration="32" state="rGGGrrrrrrGGGrrrrrr" minDur="32" maxDur="47"/>
    <phase duration="3"  state="ryyyrrrrrryyyrrrrrr"/>
  </tlLogic>
  <tlLogic id="cluster_564101961_564111070_564111077_564111078_564111079" type="static" programID="1" offset="34">
    <phase duration="22" state="grrrrgrrrgGGGGGggrr" minDur="10" maxDur="45"/>
    <phase duration="3"  state="yrrrryrrryggggyyyrr"/>
    <phase duration="75" state="rGGGGrrrrrGGGGrrrrr" minDur="35" maxDur="130"/>
    <phase duration="3"  state="ryyyyrrrrryyyyrrrrr"/>
    <phase duration="15" state="grrrrgGGGgrrrrrrgrr" minDur="10" maxDur="30"/>
    <phase duration="3"  state="yrrrryggyyrrrrrryrr"/>
    <phase duration="36" state="rrrrrrGGrrrrrrrgrGG" minDur="35" maxDur="60"/>
    <phase duration="3"  state="rrrrrryyrrrrrrrgryy"/>
  </tlLogic>
  <tlLogic id="cluster_564102062_564102063_564102094_564105698_564105699_564105700_564111068_564111069_564111080_564111081" type="static" programID="5" offset="124">
    <phase duration="37" state="grrrrrrgrrrgGGGGgrrr" minDur="27" maxDur="72"/>
    <phase duration="3" state="grrrrrrgrrrgyyyygrrr"/>
    <phase duration="37" state="gGGGGrrgrrrrGGGrrrrr" minDur="23" maxDur="72"/>
    <phase duration="3"  state="gyyyyrrgrrrryyyrrrrr"/>
    <phase duration="29" state="grrrrrggGGGgrrrrgrrr" minDur="29" maxDur="77"/>
    <phase duration="3"  state="grrrrryggyyyrrrryrrr"/>
    <phase duration="25" state="grrrrrrgrrrrrrrrrGGG" minDur="25" maxDur="67"/>
    <phase duration="3"  state="grrrrrrgrrrrrrrrryyy"/>
  </tlLogic>
  <tlLogic id="cluster_564102070_564106635_564106636_564106637_564106638" type="static" programID="3" offset="13">
    <phase duration="19" state="gGGGGgrrrgrrrrgrrr" minDur="19" maxDur="42"/>
    <phase duration="3"  state="ggggyyrrryrrrrgrrr"/>
    <phase duration="30" state="gGGGrrrrrrGGGrgrrr" minDur="27" maxDur="67"/>
    <phase duration="4"  state="gyyyrrrrrrgggrgrrr"/>
    <phase duration="13" state="grrrrgrrrgGGGGgrrr" minDur="10" maxDur="27"/>
    <phase duration="3"  state="grrrryrrrgyyyygrrr"/>
    <phase duration="31" state="grrrrrGGGgrrrrgrrr" minDur="31" maxDur="47"/>
    <phase duration="3"  state="grrrrryyyyrrrrgrrr"/>
    <phase duration="31" state="grrrrgrrrrrrrrgGGG" minDur="31" maxDur="47"/>
    <phase duration="3"  state="grrrrgrrrrrrrrgyyy"/>
  </tlLogic>
  <tlLogic id="cluster_564102243_564111067_564111082_564111083_564111084_564111085_564111086_564111087" type="static" programID="1" offset="23">
    <phase duration="36" state="rrrrrgrGGGrrrrrrgrGrr" minDur="32" maxDur="57"/>
    <phase duration="3"  state="rrrrryryyyrrrrrryryrr"/>
    <phase duration="78" state="rGGGrrrrrrgrGGGrrrrrg" minDur="33" maxDur="127"/>
    <phase duration="3"  state="ryyyrrrrrryryyyrrrrry"/>
    <phase duration="17" state="grrrGggrrrrgrrrGggrrr" minDur="15" maxDur="37"/>
    <phase duration="3"  state="grrryygrrrrgrrryygrrr"/>
    <phase duration="16" state="grrrrrgrrrrgrrrrrgGGg" minDur="15" maxDur="37"/>
    <phase duration="4"  state="yrrrrryrrrryrrrrrygyy"/>
  </tlLogic>
  <tlLogic id="cluster_564105892_564106630_564106631" type="static" programID="5" offset="23">
    <phase duration="27" state="grrrrgrrrrrrrrrGGG" minDur="27" maxDur="42"/>
    <phase duration="3"  state="grrrryrrrrrrrrryyy"/>
    <phase duration="36" state="grrrrrrrrrGGGGgrrr" minDur="26" maxDur="72"/>
    <phase duration="3"  state="yrrrrrrrrryyyyyrrr"/>
    <phase duration="34" state="rGGGGgrrrgrrrrrrrr" minDur="27" maxDur="72"/>
    <phase duration="3"  state="ryyyyyrrrgrrrrrrrr"/>
    <phase duration="31" state="rrrrrrGGGgrrrrgrrr" minDur="31" maxDur="47"/>
    <phase duration="3"  state="rrrrrryyyyrrrryrrr"/>
  </tlLogic>
  <tlLogic id="cluster_564111187_564111188_564111193" type="static" programID="1" offset="152">
    <phase duration="37" state="rrrrrrGGGgrrrrrgrrr" minDur="37" maxDur="57"/>
    <phase duration="3"  state="rrrrrrrrrrrrrrrrrrr"/>
    <phase duration="68" state="rGGGGrrrrrGGGGrrrrr" minDur="31" maxDur="120"/>
    <phase duration="3"  state="ryyyyrrrrrggggrrrrr"/>
    <phase duration="22" state="grrrrgrrrgGGGGGgrrr" minDur="15" maxDur="37"/>
    <phase duration="3"  state="grrrrgrrrgyyyyygrrr"/>
    <phase duration="21" state="grrrrgrrrgrrrrrgGGG" minDur="15" maxDur="37"/>
    <phase duration="3"  state="yrrrryrrrgrrrrrgyyy"/>
  </tlLogic>
  <tlLogic id="cluster_564112792_564102078_564102079_564112791" type="static" programID="3" offset="137">
    <phase duration="30" state="grrrrrrrrGgGGggrrr" minDur="30" maxDur="47"/>
    <phase duration="3" state="grrrrrrrrGgyyggrrr"/>
    <phase duration="15" state="gGGrrrrrrGrrrrgrrr" minDur="15" maxDur="27"/>
    <phase duration="3"  state="gggrrrrrryrrrrgrrr"/>
    <phase duration="12"  state="gGGGgrrrgrrrrrgrrr" minDur="10" maxDur="22"/>
    <phase duration="3"  state="yyyyyrrryrrrrryrrr"/>
    <phase duration="71" state="rrrrrGGGrrrrrgrGGG" minDur="42" maxDur="160"/>
    <phase duration="3"  state="rrrrryyyrrrrrgryyy"/>
  </tlLogic>
</additional>
