<?xml version='1.0' encoding='UTF-8'?>
<net xmlns:xsi="http://www.w3.org/2001/XMLSchema-instance" version="1.6" xsi:noNamespaceSchemaLocation="http://sumo.dlr.de/xsd/net_file.xsd">

    <location netOffset="-354128.84,-4023598.68" convBoundary="0.00,-28.95,1909.49,1756.74" origBoundary="127.374297,36.346614,127.395430,36.362338" projParameter="+proj=utm +zone=52 +ellps=WGS84 +datum=WGS84 +units=m +no_defs" />

    <edge id=":564100194_0" function="internal">
        <lane id=":564100194_0_0" index="0" speed="50.00" length="0.29" shape="1421.99,713.65 1421.98,713.37" />
        <lane id=":564100194_0_1" index="1" speed="50.00" length="0.29" shape="1425.19,713.57 1425.18,713.28" />
        <lane id=":564100194_0_2" index="2" speed="50.00" length="0.29" shape="1428.38,713.48 1428.38,713.19" />
    </edge>
    <edge id=":564100194_3" function="internal">
        <lane id=":564100194_3_0" index="0" speed="50.00" length="0.31" shape="1437.97,712.91 1437.98,713.23" />
        <lane id=":564100194_3_1" index="1" speed="50.00" length="0.31" shape="1434.77,713.00 1434.78,713.31" />
        <lane id=":564100194_3_2" index="2" speed="50.00" length="0.31" shape="1431.58,713.10 1431.58,713.40" />
    </edge>
    <edge id=":564101151_0" function="internal">
        <lane id=":564101151_0_0" index="0" speed="60.00" length="9.68" shape="959.84,26.24 950.11,26.37" />
        <lane id=":564101151_0_1" index="1" speed="60.00" length="9.68" shape="959.77,23.05 950.10,23.17" />
        <lane id=":564101151_0_2" index="2" speed="60.00" length="9.68" shape="959.70,19.85 950.09,19.97" />
    </edge>
    <edge id=":564101151_3" function="internal">
        <lane id=":564101151_3_0" index="0" speed="60.00" length="4.14" shape="956.37,8.35 956.54,9.21 957.12,9.81 958.11,10.16 959.49,10.25" />
    </edge>
    <edge id=":564101151_4" function="internal">
        <lane id=":564101151_4_0" index="0" speed="60.00" length="15.68" shape="953.17,8.26 952.82,14.78 952.20,19.44 951.29,22.24 950.10,23.17" />
    </edge>
    <edge id=":564101151_5" function="internal">
        <lane id=":564101151_5_0" index="0" speed="60.00" length="12.65" shape="953.17,8.26 952.85,13.38 952.24,17.04 951.32,19.24 950.09,19.97" />
    </edge>
    <edge id=":564101151_6" function="internal">
        <lane id=":564101151_6_0" index="0" speed="60.00" length="9.50" shape="950.06,10.37 959.49,10.25" />
        <lane id=":564101151_6_1" index="1" speed="60.00" length="9.50" shape="950.07,13.57 959.56,13.45" />
        <lane id=":564101151_6_2" index="2" speed="60.00" length="9.50" shape="950.08,16.77 959.63,16.65" />
    </edge>
    <edge id=":564101152_0" function="internal">
        <lane id=":564101152_0_0" index="0" speed="60.00" length="0.24" shape="1038.46,24.52 1038.25,24.52" />
        <lane id=":564101152_0_1" index="1" speed="60.00" length="0.24" shape="1038.42,21.32 1038.18,21.32" />
        <lane id=":564101152_0_2" index="2" speed="60.00" length="0.24" shape="1038.39,18.12 1038.11,18.12" />
    </edge>
    <edge id=":564101152_3" function="internal">
        <lane id=":564101152_3_0" index="0" speed="60.00" length="0.34" shape="1037.90,8.53 1038.28,8.52" />
        <lane id=":564101152_3_1" index="1" speed="60.00" length="0.34" shape="1037.97,11.72 1038.31,11.72" />
        <lane id=":564101152_3_2" index="2" speed="60.00" length="0.34" shape="1038.04,14.92 1038.35,14.92" />
    </edge>
    <edge id=":564101153_0" function="internal">
        <lane id=":564101153_0_0" index="0" speed="60.00" length="0.19" shape="1169.68,20.45 1169.61,20.45" />
        <lane id=":564101153_0_1" index="1" speed="60.00" length="0.19" shape="1169.64,17.25 1169.45,17.25" />
        <lane id=":564101153_0_2" index="2" speed="60.00" length="0.19" shape="1169.60,14.05 1169.29,14.06" />
    </edge>
    <edge id=":564101153_3" function="internal">
        <lane id=":564101153_3_0" index="0" speed="60.00" length="0.54" shape="1168.81,4.47 1169.46,4.45" />
        <lane id=":564101153_3_1" index="1" speed="60.00" length="0.54" shape="1168.97,7.67 1169.51,7.65" />
        <lane id=":564101153_3_2" index="2" speed="60.00" length="0.54" shape="1169.13,10.86 1169.55,10.85" />
    </edge>
    <edge id=":564101154_0" function="internal">
        <lane id=":564101154_0_0" index="0" speed="60.00" length="8.89" shape="917.93,26.48 909.16,26.67" />
        <lane id=":564101154_0_1" index="1" speed="60.00" length="8.89" shape="917.92,23.28 909.03,23.47" />
        <lane id=":564101154_0_2" index="2" speed="60.00" length="8.89" shape="917.91,20.08 908.91,20.27" />
    </edge>
    <edge id=":564101154_3" function="internal">
        <lane id=":564101154_3_0" index="0" speed="60.00" length="2.34" shape="917.91,20.08 916.71,19.38 916.32,18.51" />
    </edge>
    <edge id=":564101154_8" function="internal">
        <lane id=":564101154_8_0" index="0" speed="60.00" length="9.81" shape="916.32,18.51 915.78,17.28 915.14,13.79 914.77,8.89" />
    </edge>
    <edge id=":564101154_4" function="internal">
        <lane id=":564101154_4_0" index="0" speed="60.00" length="3.83" shape="908.54,10.68 909.89,10.53 910.85,10.20 911.41,9.70 911.57,9.02" />
    </edge>
    <edge id=":564101154_5" function="internal">
        <lane id=":564101154_5_0" index="0" speed="60.00" length="9.23" shape="908.54,10.68 917.88,10.48" />
        <lane id=":564101154_5_1" index="1" speed="60.00" length="9.23" shape="908.66,13.88 917.89,13.68" />
        <lane id=":564101154_5_2" index="2" speed="60.00" length="9.23" shape="908.78,17.07 917.90,16.88" />
    </edge>
    <edge id=":564101155_0" function="internal">
        <lane id=":564101155_0_0" index="0" speed="60.00" length="5.02" shape="1094.94,26.99 1094.70,25.63 1094.10,24.66 1093.12,24.08 1091.77,23.90" />
    </edge>
    <edge id=":564101155_1" function="internal">
        <lane id=":564101155_1_0" index="0" speed="60.00" length="10.10" shape="1098.14,26.88 1097.66,24.15 1096.43,22.21 1094.46,21.06 1091.74,20.70" />
    </edge>
    <edge id=":564101155_2" function="internal">
        <lane id=":564101155_2_0" index="0" speed="60.00" length="25.38" shape="1098.14,26.88 1098.89,19.98 1101.66,14.94 1106.45,11.76 1113.26,10.44" />
    </edge>
    <edge id=":564101155_3" function="internal">
        <lane id=":564101155_3_0" index="0" speed="60.00" length="20.28" shape="1101.34,26.77 1101.94,21.26 1104.15,17.23 1107.98,14.69 1113.42,13.64" />
    </edge>
    <edge id=":564101155_4" function="internal">
        <lane id=":564101155_4_0" index="0" speed="60.00" length="2.34" shape="1101.34,26.77 1102.10,25.55 1102.88,25.12" />
    </edge>
    <edge id=":564101155_13" function="internal">
        <lane id=":564101155_13_0" index="0" speed="60.00" length="2.34" shape="1102.88,25.12 1103.70,25.49 1104.54,26.67" />
    </edge>
    <edge id=":564101155_5" function="internal">
        <lane id=":564101155_5_0" index="0" speed="60.00" length="4.98" shape="1113.90,23.23 1112.56,23.48 1111.62,24.11 1111.08,25.10 1110.93,26.45" />
    </edge>
    <edge id=":564101155_6" function="internal">
        <lane id=":564101155_6_0" index="0" speed="60.00" length="22.02" shape="1113.90,23.23 1091.77,23.90" />
        <lane id=":564101155_6_1" index="1" speed="60.00" length="22.02" shape="1113.74,20.03 1091.74,20.70" />
        <lane id=":564101155_6_2" index="2" speed="60.00" length="22.02" shape="1113.58,16.83 1091.70,17.51" />
    </edge>
    <edge id=":564101155_9" function="internal">
        <lane id=":564101155_9_0" index="0" speed="60.00" length="4.67" shape="1113.58,16.83 1112.34,16.09 1111.90,15.31 1112.26,14.50 1113.42,13.64" />
    </edge>
    <edge id=":564101155_10" function="internal">
        <lane id=":564101155_10_0" index="0" speed="60.00" length="21.59" shape="1091.59,7.91 1113.10,7.25" />
        <lane id=":564101155_10_1" index="1" speed="60.00" length="21.59" shape="1091.62,11.11 1113.26,10.44" />
    </edge>
    <edge id=":564101155_12" function="internal">
        <lane id=":564101155_12_0" index="0" speed="60.00" length="20.25" shape="1091.66,14.31 1097.14,15.02 1101.11,17.32 1103.57,21.20 1104.54,26.67" />
    </edge>
    <edge id=":564101156_0" function="internal">
        <lane id=":564101156_0_0" index="0" speed="60.00" length="0.37" shape="1332.80,18.83 1332.37,18.84" />
        <lane id=":564101156_0_1" index="1" speed="60.00" length="0.37" shape="1332.72,15.64 1332.35,15.64" />
        <lane id=":564101156_0_2" index="2" speed="60.00" length="0.37" shape="1332.65,12.44 1332.34,12.44" />
    </edge>
    <edge id=":564101156_3" function="internal">
        <lane id=":564101156_3_0" index="0" speed="60.00" length="0.20" shape="1332.29,2.84 1332.42,2.84" />
        <lane id=":564101156_3_1" index="1" speed="60.00" length="0.20" shape="1332.30,6.04 1332.50,6.04" />
        <lane id=":564101156_3_2" index="2" speed="60.00" length="0.20" shape="1332.32,9.24 1332.57,9.24" />
    </edge>
    <edge id=":564101157_0" function="internal">
        <lane id=":564101157_0_0" index="0" speed="60.00" length="0.58" shape="828.76,29.80 828.05,29.81" />
        <lane id=":564101157_0_1" index="1" speed="60.00" length="0.58" shape="828.63,26.60 828.05,26.61" />
        <lane id=":564101157_0_2" index="2" speed="60.00" length="0.58" shape="828.51,23.40 828.05,23.41" />
    </edge>
    <edge id=":564101157_3" function="internal">
        <lane id=":564101157_3_0" index="0" speed="60.00" length="0.20" shape="828.05,13.81 828.13,13.81" />
        <lane id=":564101157_3_1" index="1" speed="60.00" length="0.20" shape="828.05,17.01 828.26,17.01" />
        <lane id=":564101157_3_2" index="2" speed="60.00" length="0.20" shape="828.05,20.21 828.38,20.20" />
    </edge>
    <edge id=":564101158_0" function="internal">
        <lane id=":564101158_0_0" index="0" speed="60.00" length="0.28" shape="1548.80,12.90 1548.53,12.91" />
        <lane id=":564101158_0_1" index="1" speed="60.00" length="0.28" shape="1548.71,9.70 1548.43,9.71" />
        <lane id=":564101158_0_2" index="2" speed="60.00" length="0.28" shape="1548.63,6.51 1548.34,6.51" />
    </edge>
    <edge id=":564101158_3" function="internal">
        <lane id=":564101158_3_0" index="0" speed="60.00" length="0.32" shape="1548.05,-3.08 1548.38,-3.09" />
        <lane id=":564101158_3_1" index="1" speed="60.00" length="0.32" shape="1548.15,0.12 1548.47,0.11" />
        <lane id=":564101158_3_2" index="2" speed="60.00" length="0.32" shape="1548.24,3.32 1548.55,3.31" />
    </edge>
    <edge id=":564101159_0" function="internal">
        <lane id=":564101159_0_0" index="0" speed="60.00" length="0.27" shape="1658.04,10.09 1657.79,10.09" />
        <lane id=":564101159_0_1" index="1" speed="60.00" length="0.27" shape="1657.97,6.89 1657.70,6.89" />
        <lane id=":564101159_0_2" index="2" speed="60.00" length="0.27" shape="1657.91,3.69 1657.62,3.69" />
    </edge>
    <edge id=":564101159_3" function="internal">
        <lane id=":564101159_3_0" index="0" speed="60.00" length="0.33" shape="1657.37,-5.90 1657.72,-5.91" />
        <lane id=":564101159_3_1" index="1" speed="60.00" length="0.33" shape="1657.46,-2.70 1657.79,-2.71" />
        <lane id=":564101159_3_2" index="2" speed="60.00" length="0.33" shape="1657.54,0.49 1657.85,0.49" />
    </edge>
    <edge id=":564101234_0" function="internal">
        <lane id=":564101234_0_0" index="0" speed="60.00" length="0.27" shape="1097.61,106.42 1097.60,106.18" />
        <lane id=":564101234_0_1" index="1" speed="60.00" length="0.27" shape="1100.81,106.34 1100.80,106.07" />
        <lane id=":564101234_0_2" index="2" speed="60.00" length="0.27" shape="1104.00,106.25 1104.00,105.96" />
    </edge>
    <edge id=":564101234_3" function="internal">
        <lane id=":564101234_3_0" index="0" speed="60.00" length="0.33" shape="1113.59,105.64 1113.60,105.99" />
        <lane id=":564101234_3_1" index="1" speed="60.00" length="0.33" shape="1110.39,105.75 1110.40,106.08" />
        <lane id=":564101234_3_2" index="2" speed="60.00" length="0.33" shape="1107.19,105.86 1107.20,106.17" />
    </edge>
    <edge id=":564101270_0" function="internal">
        <lane id=":564101270_0_0" index="0" speed="60.00" length="0.28" shape="1410.04,136.52 1410.04,136.25" />
        <lane id=":564101270_0_1" index="1" speed="60.00" length="0.28" shape="1413.24,136.47 1413.24,136.19" />
        <lane id=":564101270_0_2" index="2" speed="60.00" length="0.28" shape="1416.44,136.42 1416.44,136.12" />
    </edge>
    <edge id=":564101270_3" function="internal">
        <lane id=":564101270_3_0" index="0" speed="60.00" length="0.32" shape="1426.04,135.93 1426.04,136.26" />
        <lane id=":564101270_3_1" index="1" speed="60.00" length="0.32" shape="1422.84,135.99 1422.84,136.31" />
        <lane id=":564101270_3_2" index="2" speed="60.00" length="0.32" shape="1419.64,136.06 1419.64,136.36" />
    </edge>
    <edge id=":564101273_0" function="internal">
        <lane id=":564101273_0_0" index="0" speed="60.00" length="0.29" shape="1098.56,141.78 1098.55,141.50" />
        <lane id=":564101273_0_1" index="1" speed="60.00" length="0.29" shape="1101.76,141.71 1101.75,141.42" />
        <lane id=":564101273_0_2" index="2" speed="60.00" length="0.29" shape="1104.95,141.63 1104.95,141.33" />
    </edge>
    <edge id=":564101273_3" function="internal">
        <lane id=":564101273_3_0" index="0" speed="60.00" length="0.31" shape="1114.54,141.08 1114.55,141.40" />
        <lane id=":564101273_3_1" index="1" speed="60.00" length="0.31" shape="1111.34,141.16 1111.35,141.47" />
        <lane id=":564101273_3_2" index="2" speed="60.00" length="0.31" shape="1108.15,141.25 1108.15,141.55" />
    </edge>
    <edge id=":564101287_0" function="internal">
        <lane id=":564101287_0_0" index="0" speed="60.00" length="0.33" shape="759.20,150.42 759.20,150.08" />
        <lane id=":564101287_0_1" index="1" speed="60.00" length="0.33" shape="762.40,150.36 762.40,150.03" />
        <lane id=":564101287_0_2" index="2" speed="60.00" length="0.33" shape="765.60,150.29 765.60,149.98" />
    </edge>
    <edge id=":564101287_3" function="internal">
        <lane id=":564101287_3_0" index="0" speed="60.00" length="0.27" shape="775.20,149.85 775.20,150.10" />
        <lane id=":564101287_3_1" index="1" speed="60.00" length="0.27" shape="772.00,149.89 772.00,150.16" />
        <lane id=":564101287_3_2" index="2" speed="60.00" length="0.27" shape="768.80,149.94 768.80,150.23" />
    </edge>
    <edge id=":564101378_0" function="internal">
        <lane id=":564101378_0_0" index="0" speed="60.00" length="5.02" shape="1864.00,265.19 1863.79,263.83 1863.19,262.86 1862.21,262.30 1860.84,262.14" />
    </edge>
    <edge id=":564101378_1" function="internal">
        <lane id=":564101378_1_0" index="0" speed="60.00" length="22.27" shape="1864.00,265.19 1863.59,242.97" />
        <lane id=":564101378_1_1" index="1" speed="60.00" length="22.27" shape="1867.20,265.15 1866.79,242.89" />
        <lane id=":564101378_1_2" index="2" speed="60.00" length="22.27" shape="1870.40,265.11 1869.99,242.81" />
    </edge>
    <edge id=":564101378_4" function="internal">
        <lane id=":564101378_4_0" index="0" speed="60.00" length="22.40" shape="1879.59,242.56 1880.00,265.00" />
        <lane id=":564101378_4_1" index="1" speed="60.00" length="22.40" shape="1876.39,242.64 1876.80,265.04" />
        <lane id=":564101378_4_2" index="2" speed="60.00" length="22.40" shape="1873.19,242.72 1873.60,265.08" />
    </edge>
    <edge id=":564101378_7" function="internal">
        <lane id=":564101378_7_0" index="0" speed="60.00" length="8.97" shape="1873.19,242.72 1872.56,249.70 1871.75,251.49" />
    </edge>
    <edge id=":564101378_8" function="internal">
        <lane id=":564101378_8_0" index="0" speed="60.00" length="7.25" shape="1873.19,242.72 1872.53,248.30 1871.72,249.72" />
    </edge>
    <edge id=":564101378_9" function="internal">
        <lane id=":564101378_9_0" index="0" speed="60.00" length="2.34" shape="1873.19,242.72 1872.42,243.94 1871.63,244.36" />
    </edge>
    <edge id=":564101378_14" function="internal">
        <lane id=":564101378_14_0" index="0" speed="60.00" length="14.25" shape="1871.75,251.49 1870.28,254.73 1866.35,257.81 1860.76,258.95" />
    </edge>
    <edge id=":564101378_15" function="internal">
        <lane id=":564101378_15_0" index="0" speed="60.00" length="13.35" shape="1871.72,249.72 1870.22,252.33 1866.27,254.81 1860.68,255.75" />
    </edge>
    <edge id=":564101378_16" function="internal">
        <lane id=":564101378_16_0" index="0" speed="60.00" length="2.34" shape="1871.63,244.36 1870.82,243.98 1869.99,242.81" />
    </edge>
    <edge id=":564101378_10" function="internal">
        <lane id=":564101378_10_0" index="0" speed="60.00" length="5.11" shape="1860.43,246.15 1861.84,245.92 1862.84,245.31 1863.42,244.33 1863.59,242.97" />
    </edge>
    <edge id=":564101378_11" function="internal">
        <lane id=":564101378_11_0" index="0" speed="60.00" length="10.27" shape="1860.52,249.35 1863.32,248.88 1865.30,247.65 1866.46,245.65 1866.79,242.89" />
    </edge>
    <edge id=":564101378_12" function="internal">
        <lane id=":564101378_12_0" index="0" speed="60.00" length="23.32" shape="1860.60,252.55 1867.63,253.17 1872.67,255.47 1875.73,259.42 1876.80,265.04" />
    </edge>
    <edge id=":564101378_13" function="internal">
        <lane id=":564101378_13_0" index="0" speed="60.00" length="20.66" shape="1860.60,252.55 1866.23,253.21 1870.27,255.52 1872.73,259.47 1873.60,265.08" />
    </edge>
    <edge id=":564101382_0" function="internal">
        <lane id=":564101382_0_0" index="0" speed="60.00" length="0.34" shape="1734.67,265.36 1734.31,265.37" />
        <lane id=":564101382_0_1" index="1" speed="60.00" length="0.34" shape="1734.59,262.16 1734.25,262.17" />
        <lane id=":564101382_0_2" index="2" speed="60.00" length="0.34" shape="1734.51,258.97 1734.20,258.97" />
    </edge>
    <edge id=":564101382_3" function="internal">
        <lane id=":564101382_3_0" index="0" speed="60.00" length="0.25" shape="1734.04,249.37 1734.26,249.37" />
        <lane id=":564101382_3_1" index="1" speed="60.00" length="0.25" shape="1734.09,252.57 1734.35,252.57" />
        <lane id=":564101382_3_2" index="2" speed="60.00" length="0.25" shape="1734.15,255.77 1734.43,255.77" />
    </edge>
    <edge id=":564101385_0" function="internal">
        <lane id=":564101385_0_0" index="0" speed="60.00" length="0.27" shape="1334.69,273.91 1334.44,273.91" />
        <lane id=":564101385_0_1" index="1" speed="60.00" length="0.27" shape="1334.63,270.71 1334.36,270.71" />
        <lane id=":564101385_0_2" index="2" speed="60.00" length="0.27" shape="1334.56,267.51 1334.27,267.51" />
    </edge>
    <edge id=":564101385_3" function="internal">
        <lane id=":564101385_3_0" index="0" speed="60.00" length="0.33" shape="1334.02,257.92 1334.37,257.91" />
        <lane id=":564101385_3_1" index="1" speed="60.00" length="0.33" shape="1334.11,261.12 1334.43,261.11" />
        <lane id=":564101385_3_2" index="2" speed="60.00" length="0.33" shape="1334.19,264.31 1334.50,264.31" />
    </edge>
    <edge id=":564101387_0" function="internal">
        <lane id=":564101387_0_0" index="0" speed="60.00" length="0.34" shape="1193.16,277.60 1192.79,277.61" />
        <lane id=":564101387_0_1" index="1" speed="60.00" length="0.34" shape="1193.07,274.40 1192.73,274.41" />
        <lane id=":564101387_0_2" index="2" speed="60.00" length="0.34" shape="1192.99,271.21 1192.68,271.21" />
    </edge>
    <edge id=":564101387_3" function="internal">
        <lane id=":564101387_3_0" index="0" speed="60.00" length="0.25" shape="1192.52,261.61 1192.74,261.61" />
        <lane id=":564101387_3_1" index="1" speed="60.00" length="0.25" shape="1192.57,264.81 1192.82,264.81" />
        <lane id=":564101387_3_2" index="2" speed="60.00" length="0.25" shape="1192.63,268.01 1192.91,268.01" />
    </edge>
    <edge id=":564101395_0" function="internal">
        <lane id=":564101395_0_0" index="0" speed="50.00" length="0.27" shape="684.65,283.90 684.39,283.90" />
        <lane id=":564101395_0_1" index="1" speed="50.00" length="0.27" shape="684.67,280.70 684.38,280.70" />
    </edge>
    <edge id=":564101395_2" function="internal">
        <lane id=":564101395_2_0" index="0" speed="50.00" length="0.32" shape="684.37,274.30 684.71,274.30" />
        <lane id=":564101395_2_1" index="1" speed="50.00" length="0.32" shape="684.38,277.50 684.69,277.50" />
    </edge>
    <edge id=":564101396_0" function="internal">
        <lane id=":564101396_0_0" index="0" speed="50.00" length="0.35" shape="717.82,284.11 717.42,284.12" />
        <lane id=":564101396_0_1" index="1" speed="50.00" length="0.35" shape="717.73,280.92 717.44,280.92" />
    </edge>
    <edge id=":564101396_2" function="internal">
        <lane id=":564101396_2_0" index="0" speed="50.00" length="0.13" shape="717.48,274.52 717.56,274.52" />
        <lane id=":564101396_2_1" index="1" speed="50.00" length="0.13" shape="717.46,277.72 717.65,277.72" />
    </edge>
    <edge id=":564101397_0" function="internal">
        <lane id=":564101397_0_0" index="0" speed="55.00" length="7.80" shape="762.06,289.25 761.80,286.48 761.17,284.52 760.17,283.35 758.81,282.99" />
    </edge>
    <edge id=":564101397_1" function="internal">
        <lane id=":564101397_1_0" index="0" speed="60.00" length="22.26" shape="762.06,289.25 761.57,266.99" />
        <lane id=":564101397_1_1" index="1" speed="60.00" length="22.26" shape="765.26,289.18 764.77,266.92" />
        <lane id=":564101397_1_2" index="2" speed="60.00" length="22.26" shape="768.46,289.10 767.97,266.86" />
    </edge>
    <edge id=":564101397_4" function="internal">
        <lane id=":564101397_4_0" index="0" speed="60.00" length="20.58" shape="768.46,289.10 769.12,283.49 771.42,279.46 775.36,277.00 780.93,276.10" />
    </edge>
    <edge id=":564101397_5" function="internal">
        <lane id=":564101397_5_0" index="0" speed="60.00" length="2.34" shape="768.46,289.10 769.23,287.88 770.02,287.46" />
    </edge>
    <edge id=":564101397_20" function="internal">
        <lane id=":564101397_20_0" index="0" speed="60.00" length="2.34" shape="770.02,287.46 770.83,287.84 771.66,289.02" />
    </edge>
    <edge id=":564101397_6" function="internal">
        <lane id=":564101397_6_0" index="0" speed="60.00" length="5.01" shape="781.09,285.70 779.74,285.92 778.78,286.52 778.22,287.50 778.06,288.87" />
    </edge>
    <edge id=":564101397_7" function="internal">
        <lane id=":564101397_7_0" index="0" speed="55.00" length="22.24" shape="781.04,282.50 758.81,282.99" />
    </edge>
    <edge id=":564101397_8" function="internal">
        <lane id=":564101397_8_0" index="0" speed="60.00" length="20.52" shape="780.99,279.30 775.39,278.61 771.35,276.30 768.88,272.38 767.97,266.86" />
    </edge>
    <edge id=":564101397_9" function="internal">
        <lane id=":564101397_9_0" index="0" speed="60.00" length="2.34" shape="780.99,279.30 779.77,278.52 779.36,277.73" />
    </edge>
    <edge id=":564101397_21" function="internal">
        <lane id=":564101397_21_0" index="0" speed="60.00" length="2.34" shape="779.36,277.73 779.75,276.92 780.93,276.10" />
    </edge>
    <edge id=":564101397_10" function="internal">
        <lane id=":564101397_10_0" index="0" speed="60.00" length="5.08" shape="777.56,266.66 777.79,268.01 778.41,268.97 779.42,269.53 780.83,269.71" />
    </edge>
    <edge id=":564101397_11" function="internal">
        <lane id=":564101397_11_0" index="0" speed="60.00" length="22.22" shape="777.56,266.66 778.06,288.87" />
        <lane id=":564101397_11_1" index="1" speed="60.00" length="22.22" shape="774.36,266.73 774.86,288.94" />
        <lane id=":564101397_11_2" index="2" speed="60.00" length="22.22" shape="771.17,266.79 771.66,289.02" />
    </edge>
    <edge id=":564101397_14" function="internal">
        <lane id=":564101397_14_0" index="0" speed="55.00" length="20.49" shape="771.17,266.79 770.48,272.35 768.18,276.37 764.26,278.85 758.72,279.79" />
    </edge>
    <edge id=":564101397_15" function="internal">
        <lane id=":564101397_15_0" index="0" speed="60.00" length="2.34" shape="771.17,266.79 770.39,268.01 769.60,268.43" />
    </edge>
    <edge id=":564101397_22" function="internal">
        <lane id=":564101397_22_0" index="0" speed="60.00" length="2.34" shape="769.60,268.43 768.79,268.04 767.97,266.86" />
    </edge>
    <edge id=":564101397_16" function="internal">
        <lane id=":564101397_16_0" index="0" speed="55.00" length="7.83" shape="758.54,273.40 759.91,272.96 760.88,271.75 761.43,269.76 761.57,266.99" />
    </edge>
    <edge id=":564101397_17" function="internal">
        <lane id=":564101397_17_0" index="0" speed="55.00" length="22.33" shape="758.54,273.40 780.88,272.90" />
        <lane id=":564101397_17_1" index="1" speed="55.00" length="22.33" shape="758.63,276.60 780.93,276.10" />
    </edge>
    <edge id=":564101397_19" function="internal">
        <lane id=":564101397_19_0" index="0" speed="55.00" length="20.55" shape="758.63,276.60 764.21,277.24 768.25,279.53 770.73,283.45 771.66,289.02" />
    </edge>
    <edge id=":564101450_0" function="internal">
        <lane id=":564101450_0_0" index="0" speed="50.00" length="0.45" shape="1412.87,317.01 1412.86,316.47" />
        <lane id=":564101450_0_1" index="1" speed="50.00" length="0.45" shape="1416.07,316.92 1416.06,316.47" />
        <lane id=":564101450_0_2" index="2" speed="50.00" length="0.45" shape="1419.27,316.83 1419.26,316.47" />
    </edge>
    <edge id=":564101450_3" function="internal">
        <lane id=":564101450_3_0" index="0" speed="50.00" length="0.17" shape="1428.86,316.48 1428.86,316.55" />
        <lane id=":564101450_3_1" index="1" speed="50.00" length="0.17" shape="1425.66,316.48 1425.66,316.65" />
        <lane id=":564101450_3_2" index="2" speed="50.00" length="0.17" shape="1422.46,316.48 1422.46,316.74" />
    </edge>
    <edge id=":564101454_0" function="internal">
        <lane id=":564101454_0_0" index="0" speed="60.00" length="0.28" shape="1102.25,325.89 1102.25,325.62" />
        <lane id=":564101454_0_1" index="1" speed="60.00" length="0.28" shape="1105.45,325.87 1105.45,325.59" />
        <lane id=":564101454_0_2" index="2" speed="60.00" length="0.28" shape="1108.65,325.85 1108.65,325.56" />
    </edge>
    <edge id=":564101454_3" function="internal">
        <lane id=":564101454_3_0" index="0" speed="60.00" length="0.32" shape="1118.25,325.46 1118.25,325.79" />
        <lane id=":564101454_3_1" index="1" speed="60.00" length="0.32" shape="1115.05,325.49 1115.05,325.81" />
        <lane id=":564101454_3_2" index="2" speed="60.00" length="0.32" shape="1111.85,325.52 1111.85,325.83" />
    </edge>
    <edge id=":564101492_0" function="internal">
        <lane id=":564101492_0_0" index="0" speed="60.00" length="0.31" shape="1865.77,378.67 1865.76,378.35" />
        <lane id=":564101492_0_1" index="1" speed="60.00" length="0.31" shape="1868.96,378.60 1868.96,378.29" />
        <lane id=":564101492_0_2" index="2" speed="60.00" length="0.31" shape="1872.16,378.53 1872.16,378.22" />
    </edge>
    <edge id=":564101492_3" function="internal">
        <lane id=":564101492_3_0" index="0" speed="60.00" length="0.29" shape="1881.76,378.03 1881.76,378.31" />
        <lane id=":564101492_3_1" index="1" speed="60.00" length="0.29" shape="1878.56,378.09 1878.56,378.38" />
        <lane id=":564101492_3_2" index="2" speed="60.00" length="0.29" shape="1875.36,378.16 1875.36,378.45" />
    </edge>
    <edge id=":564101553_0" function="internal">
        <lane id=":564101553_0_0" index="0" speed="50.00" length="0.15" shape="1416.94,458.98 1416.94,458.91" />
        <lane id=":564101553_0_1" index="1" speed="50.00" length="0.15" shape="1420.14,458.97 1420.14,458.82" />
        <lane id=":564101553_0_2" index="2" speed="50.00" length="0.15" shape="1423.34,458.96 1423.34,458.73" />
    </edge>
    <edge id=":564101553_3" function="internal">
        <lane id=":564101553_3_0" index="0" speed="50.00" length="0.40" shape="1432.93,458.45 1432.94,458.94" />
        <lane id=":564101553_3_1" index="1" speed="50.00" length="0.40" shape="1429.73,458.54 1429.74,458.95" />
        <lane id=":564101553_3_2" index="2" speed="50.00" length="0.40" shape="1426.54,458.63 1426.54,458.96" />
    </edge>
    <edge id=":564101602_0" function="internal">
        <lane id=":564101602_0_0" index="0" speed="60.00" length="5.01" shape="1868.21,515.00 1867.99,513.65 1867.39,512.69 1866.41,512.13 1865.05,511.97" />
    </edge>
    <edge id=":564101602_1" function="internal">
        <lane id=":564101602_1_0" index="0" speed="60.00" length="15.78" shape="1868.21,515.00 1867.96,499.21" />
        <lane id=":564101602_1_1" index="1" speed="60.00" length="15.78" shape="1871.41,514.95 1871.16,499.17" />
        <lane id=":564101602_1_2" index="2" speed="60.00" length="15.78" shape="1874.61,514.89 1874.36,499.13" />
    </edge>
    <edge id=":564101602_4" function="internal">
        <lane id=":564101602_4_0" index="0" speed="60.00" length="2.34" shape="1874.61,514.89 1875.39,513.68 1876.18,513.26" />
    </edge>
    <edge id=":564101602_14" function="internal">
        <lane id=":564101602_14_0" index="0" speed="60.00" length="2.34" shape="1876.18,513.26 1876.99,513.65 1877.81,514.83" />
    </edge>
    <edge id=":564101602_5" function="internal">
        <lane id=":564101602_5_0" index="0" speed="60.00" length="15.74" shape="1883.96,498.99 1884.21,514.72" />
        <lane id=":564101602_5_1" index="1" speed="60.00" length="15.74" shape="1880.76,499.04 1881.01,514.78" />
        <lane id=":564101602_5_2" index="2" speed="60.00" length="15.74" shape="1877.56,499.08 1877.81,514.83" />
    </edge>
    <edge id=":564101602_8" function="internal">
        <lane id=":564101602_8_0" index="0" speed="60.00" length="5.46" shape="1877.56,499.08 1876.82,503.21 1876.04,504.20" />
    </edge>
    <edge id=":564101602_9" function="internal">